version 3
run Default-0-20260503-16:26:57-15516
attr configname Default
attr datetime 20260503-16:26:57
attr datetimef 20260503-162657
attr experiment Default
attr inifile omnetpp.ini
attr iterationvars ""
attr iterationvarsd ""
attr iterationvarsf ""
attr measurement ""
attr network RSUExampleScenario
attr processid 15516
attr repetition 0
attr replication #0
attr resultdir results
attr runnumber 0
attr seedset 0
config image-path ../../images
config cmdenv-express-mode true
config cmdenv-autoflush true
config cmdenv-status-frequency 1s
config **.cmdenv-log-level info
config image-path ../../images
config network RSUExampleScenario
config debug-on-errors true
config print-undisposed true
config sim-time-limit 200s
config **.scalar-recording true
config **.vector-recording true
config *.playgroundSizeX 5000m
config *.playgroundSizeY 5000m
config *.playgroundSizeZ 50m
config *.annotations.draw false
config *.manager.updateInterval 1s
config *.manager.host "\"localhost\""
config *.manager.port 9999
config *.manager.autoShutdown true
config *.manager.launchConfig "xmldoc(\"homs.launchd.xml\")"
config *.manager.trafficLightModuleType "\"org.car2x.veins.nodes.TrafficLight\""
config *.tls[*].mobility.x 2500
config *.tls[*].mobility.y 2500
config *.tls[*].mobility.z 3
config *.tls[*].applType "\"org.car2x.veins.modules.application.traci.TraCIDemoTrafficLightApp\""
config *.tls[*].logicType "\"org.car2x.veins.modules.world.traci.trafficLight.logics.TraCITrafficLightSimpleLogic\""
config *.rsu[0].mobility.x 2000
config *.rsu[0].mobility.y 2000
config *.rsu[0].mobility.z 3
config *.rsu[*].applType "\"TraCIDemoRSU11p\""
config *.rsu[*].appl.headerLength "80 bit"
config *.rsu[*].appl.sendBeacons false
config *.rsu[*].appl.dataOnSch false
config *.rsu[*].appl.beaconInterval 1s
config *.rsu[*].appl.beaconUserPriority 7
config *.rsu[*].appl.dataUserPriority 5
config *.rsu[*].nic.phy80211p.antennaOffsetZ "0 m"
config *.connectionManager.sendDirect true
config *.connectionManager.maxInterfDist 1000m
config *.connectionManager.drawMaxIntfDist false
config *.**.nic.mac1609_4.useServiceChannel false
config *.**.nic.mac1609_4.txPower 20mW
config *.**.nic.mac1609_4.bitrate 6Mbps
config *.**.nic.phy80211p.minPowerLevel -110dBm
config *.**.nic.phy80211p.useNoiseFloor true
config *.**.nic.phy80211p.noiseFloor -98dBm
config *.**.nic.phy80211p.decider "xmldoc(\"config.xml\")"
config *.**.nic.phy80211p.analogueModels "xmldoc(\"config.xml\")"
config *.**.nic.phy80211p.usePropagationDelay true
config *.**.nic.phy80211p.antenna "xmldoc(\"antenna.xml\", \"/root/Antenna[@id='monopole']\")"
config *.node[*].nic.phy80211p.antennaOffsetY "0 m"
config *.node[*].nic.phy80211p.antennaOffsetZ "1.895 m"
config *.node[*].applType "\"TraCIDemo11p\""
config *.node[*].appl.headerLength "80 bit"
config *.node[*].appl.sendBeacons false
config *.node[*].appl.dataOnSch false
config *.node[*].appl.beaconInterval 1s
config *.node[*].veinsmobility.x 0
config *.node[*].veinsmobility.y 0
config *.node[*].veinsmobility.z 0
config *.node[*].veinsmobility.setHostSpeed false
config *.node[*0].veinsmobility.accidentCount 1
config *.node[*0].veinsmobility.accidentStart 73s
config *.node[*0].veinsmobility.accidentDuration 50s

vector 0 RSUExampleScenario.node[0].veinsmobility posx ETV
vector 1 RSUExampleScenario.node[0].veinsmobility posy ETV
vector 2 RSUExampleScenario.node[1].veinsmobility posx ETV
vector 3 RSUExampleScenario.node[1].veinsmobility posy ETV
vector 4 RSUExampleScenario.node[0].veinsmobility speed ETV
vector 5 RSUExampleScenario.node[2].veinsmobility posx ETV
vector 6 RSUExampleScenario.node[2].veinsmobility posy ETV
vector 7 RSUExampleScenario.node[0].veinsmobility acceleration ETV
vector 8 RSUExampleScenario.node[0].veinsmobility co2emission ETV
vector 9 RSUExampleScenario.node[1].veinsmobility speed ETV
vector 10 RSUExampleScenario.node[3].veinsmobility posx ETV
vector 11 RSUExampleScenario.node[3].veinsmobility posy ETV
vector 12 RSUExampleScenario.node[1].veinsmobility acceleration ETV
vector 13 RSUExampleScenario.node[1].veinsmobility co2emission ETV
vector 14 RSUExampleScenario.node[2].veinsmobility speed ETV
vector 15 RSUExampleScenario.node[4].veinsmobility posx ETV
vector 16 RSUExampleScenario.node[4].veinsmobility posy ETV
vector 17 RSUExampleScenario.node[2].veinsmobility acceleration ETV
vector 18 RSUExampleScenario.node[2].veinsmobility co2emission ETV
vector 19 RSUExampleScenario.node[3].veinsmobility speed ETV
vector 20 RSUExampleScenario.node[5].veinsmobility posx ETV
vector 21 RSUExampleScenario.node[5].veinsmobility posy ETV
vector 22 RSUExampleScenario.node[3].veinsmobility acceleration ETV
vector 23 RSUExampleScenario.node[3].veinsmobility co2emission ETV
vector 24 RSUExampleScenario.node[4].veinsmobility speed ETV
vector 25 RSUExampleScenario.node[6].veinsmobility posx ETV
vector 26 RSUExampleScenario.node[6].veinsmobility posy ETV
vector 27 RSUExampleScenario.node[4].veinsmobility acceleration ETV
vector 28 RSUExampleScenario.node[4].veinsmobility co2emission ETV
vector 29 RSUExampleScenario.node[5].veinsmobility speed ETV
vector 30 RSUExampleScenario.node[7].veinsmobility posx ETV
vector 31 RSUExampleScenario.node[7].veinsmobility posy ETV
vector 32 RSUExampleScenario.node[5].veinsmobility acceleration ETV
vector 33 RSUExampleScenario.node[5].veinsmobility co2emission ETV
vector 34 RSUExampleScenario.node[6].veinsmobility speed ETV
vector 35 RSUExampleScenario.node[8].veinsmobility posx ETV
vector 36 RSUExampleScenario.node[8].veinsmobility posy ETV
vector 37 RSUExampleScenario.node[6].veinsmobility acceleration ETV
vector 38 RSUExampleScenario.node[6].veinsmobility co2emission ETV
vector 39 RSUExampleScenario.node[7].veinsmobility speed ETV
vector 40 RSUExampleScenario.node[7].veinsmobility acceleration ETV
vector 41 RSUExampleScenario.node[7].veinsmobility co2emission ETV
vector 42 RSUExampleScenario.node[8].veinsmobility speed ETV
vector 43 RSUExampleScenario.node[9].veinsmobility posx ETV
vector 44 RSUExampleScenario.node[9].veinsmobility posy ETV
vector 45 RSUExampleScenario.node[8].veinsmobility acceleration ETV
vector 46 RSUExampleScenario.node[8].veinsmobility co2emission ETV
vector 47 RSUExampleScenario.node[10].veinsmobility posx ETV
vector 48 RSUExampleScenario.node[10].veinsmobility posy ETV
vector 49 RSUExampleScenario.node[11].veinsmobility posx ETV
vector 50 RSUExampleScenario.node[11].veinsmobility posy ETV
vector 51 RSUExampleScenario.node[9].veinsmobility speed ETV
vector 52 RSUExampleScenario.node[12].veinsmobility posx ETV
vector 53 RSUExampleScenario.node[12].veinsmobility posy ETV
vector 54 RSUExampleScenario.node[9].veinsmobility acceleration ETV
vector 55 RSUExampleScenario.node[9].veinsmobility co2emission ETV
vector 56 RSUExampleScenario.node[10].veinsmobility speed ETV
vector 57 RSUExampleScenario.node[11].veinsmobility speed ETV
vector 58 RSUExampleScenario.node[13].veinsmobility posx ETV
vector 59 RSUExampleScenario.node[13].veinsmobility posy ETV
vector 60 RSUExampleScenario.node[10].veinsmobility acceleration ETV
vector 61 RSUExampleScenario.node[10].veinsmobility co2emission ETV
vector 62 RSUExampleScenario.node[11].veinsmobility acceleration ETV
vector 63 RSUExampleScenario.node[11].veinsmobility co2emission ETV
vector 64 RSUExampleScenario.node[12].veinsmobility speed ETV
vector 65 RSUExampleScenario.node[14].veinsmobility posx ETV
vector 66 RSUExampleScenario.node[14].veinsmobility posy ETV
vector 67 RSUExampleScenario.node[12].veinsmobility acceleration ETV
vector 68 RSUExampleScenario.node[12].veinsmobility co2emission ETV
vector 69 RSUExampleScenario.node[13].veinsmobility speed ETV
vector 70 RSUExampleScenario.node[15].veinsmobility posx ETV
vector 71 RSUExampleScenario.node[15].veinsmobility posy ETV
vector 72 RSUExampleScenario.node[13].veinsmobility acceleration ETV
vector 73 RSUExampleScenario.node[13].veinsmobility co2emission ETV
vector 74 RSUExampleScenario.node[14].veinsmobility speed ETV
vector 75 RSUExampleScenario.node[16].veinsmobility posx ETV
vector 76 RSUExampleScenario.node[16].veinsmobility posy ETV
vector 77 RSUExampleScenario.node[14].veinsmobility acceleration ETV
vector 78 RSUExampleScenario.node[14].veinsmobility co2emission ETV
vector 79 RSUExampleScenario.node[15].veinsmobility speed ETV
vector 80 RSUExampleScenario.node[17].veinsmobility posx ETV
vector 81 RSUExampleScenario.node[17].veinsmobility posy ETV
vector 82 RSUExampleScenario.node[15].veinsmobility acceleration ETV
vector 83 RSUExampleScenario.node[15].veinsmobility co2emission ETV
vector 84 RSUExampleScenario.node[16].veinsmobility speed ETV
vector 85 RSUExampleScenario.node[18].veinsmobility posx ETV
vector 86 RSUExampleScenario.node[18].veinsmobility posy ETV
vector 87 RSUExampleScenario.node[16].veinsmobility acceleration ETV
vector 88 RSUExampleScenario.node[16].veinsmobility co2emission ETV
vector 89 RSUExampleScenario.node[17].veinsmobility speed ETV
vector 90 RSUExampleScenario.node[19].veinsmobility posx ETV
vector 91 RSUExampleScenario.node[19].veinsmobility posy ETV
vector 92 RSUExampleScenario.node[17].veinsmobility acceleration ETV
vector 93 RSUExampleScenario.node[17].veinsmobility co2emission ETV
vector 94 RSUExampleScenario.node[18].veinsmobility speed ETV
vector 95 RSUExampleScenario.node[20].veinsmobility posx ETV
vector 96 RSUExampleScenario.node[20].veinsmobility posy ETV
vector 97 RSUExampleScenario.node[18].veinsmobility acceleration ETV
vector 98 RSUExampleScenario.node[18].veinsmobility co2emission ETV
vector 99 RSUExampleScenario.node[19].veinsmobility speed ETV
vector 100 RSUExampleScenario.node[21].veinsmobility posx ETV
vector 101 RSUExampleScenario.node[21].veinsmobility posy ETV
vector 102 RSUExampleScenario.node[19].veinsmobility acceleration ETV
vector 103 RSUExampleScenario.node[19].veinsmobility co2emission ETV
vector 104 RSUExampleScenario.node[20].veinsmobility speed ETV
vector 105 RSUExampleScenario.node[22].veinsmobility posx ETV
vector 106 RSUExampleScenario.node[22].veinsmobility posy ETV
vector 107 RSUExampleScenario.node[20].veinsmobility acceleration ETV
vector 108 RSUExampleScenario.node[20].veinsmobility co2emission ETV
vector 109 RSUExampleScenario.node[21].veinsmobility speed ETV
vector 110 RSUExampleScenario.node[23].veinsmobility posx ETV
vector 111 RSUExampleScenario.node[23].veinsmobility posy ETV
vector 112 RSUExampleScenario.node[21].veinsmobility acceleration ETV
vector 113 RSUExampleScenario.node[21].veinsmobility co2emission ETV
vector 114 RSUExampleScenario.node[22].veinsmobility speed ETV
vector 115 RSUExampleScenario.node[24].veinsmobility posx ETV
vector 116 RSUExampleScenario.node[24].veinsmobility posy ETV
vector 117 RSUExampleScenario.node[22].veinsmobility acceleration ETV
vector 118 RSUExampleScenario.node[22].veinsmobility co2emission ETV
vector 119 RSUExampleScenario.node[23].veinsmobility speed ETV
vector 120 RSUExampleScenario.node[25].veinsmobility posx ETV
vector 121 RSUExampleScenario.node[25].veinsmobility posy ETV
vector 122 RSUExampleScenario.node[23].veinsmobility acceleration ETV
vector 123 RSUExampleScenario.node[23].veinsmobility co2emission ETV
vector 124 RSUExampleScenario.node[24].veinsmobility speed ETV
vector 125 RSUExampleScenario.node[26].veinsmobility posx ETV
vector 126 RSUExampleScenario.node[26].veinsmobility posy ETV
vector 127 RSUExampleScenario.node[24].veinsmobility acceleration ETV
vector 128 RSUExampleScenario.node[24].veinsmobility co2emission ETV
vector 129 RSUExampleScenario.node[25].veinsmobility speed ETV
vector 130 RSUExampleScenario.node[25].veinsmobility acceleration ETV
vector 131 RSUExampleScenario.node[25].veinsmobility co2emission ETV
vector 132 RSUExampleScenario.node[26].veinsmobility speed ETV
vector 133 RSUExampleScenario.node[27].veinsmobility posx ETV
vector 134 RSUExampleScenario.node[27].veinsmobility posy ETV
vector 135 RSUExampleScenario.node[26].veinsmobility acceleration ETV
vector 136 RSUExampleScenario.node[26].veinsmobility co2emission ETV
vector 137 RSUExampleScenario.node[28].veinsmobility posx ETV
vector 138 RSUExampleScenario.node[28].veinsmobility posy ETV
vector 139 RSUExampleScenario.node[29].veinsmobility posx ETV
vector 140 RSUExampleScenario.node[29].veinsmobility posy ETV
vector 141 RSUExampleScenario.node[27].veinsmobility speed ETV
vector 142 RSUExampleScenario.node[30].veinsmobility posx ETV
vector 143 RSUExampleScenario.node[30].veinsmobility posy ETV
vector 144 RSUExampleScenario.node[27].veinsmobility acceleration ETV
vector 145 RSUExampleScenario.node[27].veinsmobility co2emission ETV
vector 146 RSUExampleScenario.node[28].veinsmobility speed ETV
vector 147 RSUExampleScenario.node[29].veinsmobility speed ETV
vector 148 RSUExampleScenario.node[31].veinsmobility posx ETV
vector 149 RSUExampleScenario.node[31].veinsmobility posy ETV
vector 150 RSUExampleScenario.node[28].veinsmobility acceleration ETV
vector 151 RSUExampleScenario.node[28].veinsmobility co2emission ETV
vector 152 RSUExampleScenario.node[29].veinsmobility acceleration ETV
vector 153 RSUExampleScenario.node[29].veinsmobility co2emission ETV
vector 154 RSUExampleScenario.node[30].veinsmobility speed ETV
vector 155 RSUExampleScenario.node[32].veinsmobility posx ETV
vector 156 RSUExampleScenario.node[32].veinsmobility posy ETV
vector 157 RSUExampleScenario.node[30].veinsmobility acceleration ETV
vector 158 RSUExampleScenario.node[30].veinsmobility co2emission ETV
vector 159 RSUExampleScenario.node[31].veinsmobility speed ETV
vector 160 RSUExampleScenario.node[33].veinsmobility posx ETV
vector 161 RSUExampleScenario.node[33].veinsmobility posy ETV
vector 162 RSUExampleScenario.node[31].veinsmobility acceleration ETV
vector 163 RSUExampleScenario.node[31].veinsmobility co2emission ETV
vector 164 RSUExampleScenario.node[32].veinsmobility speed ETV
vector 165 RSUExampleScenario.node[34].veinsmobility posx ETV
vector 166 RSUExampleScenario.node[34].veinsmobility posy ETV
vector 167 RSUExampleScenario.node[32].veinsmobility acceleration ETV
vector 168 RSUExampleScenario.node[32].veinsmobility co2emission ETV
vector 169 RSUExampleScenario.node[33].veinsmobility speed ETV
vector 170 RSUExampleScenario.node[33].veinsmobility acceleration ETV
vector 171 RSUExampleScenario.node[33].veinsmobility co2emission ETV
vector 172 RSUExampleScenario.node[34].veinsmobility speed ETV
vector 173 RSUExampleScenario.node[35].veinsmobility posx ETV
vector 174 RSUExampleScenario.node[35].veinsmobility posy ETV
vector 175 RSUExampleScenario.node[36].veinsmobility posx ETV
vector 176 RSUExampleScenario.node[36].veinsmobility posy ETV
vector 177 RSUExampleScenario.node[34].veinsmobility acceleration ETV
vector 178 RSUExampleScenario.node[34].veinsmobility co2emission ETV
vector 179 RSUExampleScenario.node[37].veinsmobility posx ETV
vector 180 RSUExampleScenario.node[37].veinsmobility posy ETV
vector 181 RSUExampleScenario.node[35].veinsmobility speed ETV
vector 182 RSUExampleScenario.node[36].veinsmobility speed ETV
vector 183 RSUExampleScenario.node[38].veinsmobility posx ETV
vector 184 RSUExampleScenario.node[38].veinsmobility posy ETV
vector 185 RSUExampleScenario.node[35].veinsmobility acceleration ETV
vector 186 RSUExampleScenario.node[35].veinsmobility co2emission ETV
vector 187 RSUExampleScenario.node[36].veinsmobility acceleration ETV
vector 188 RSUExampleScenario.node[36].veinsmobility co2emission ETV
vector 189 RSUExampleScenario.node[37].veinsmobility speed ETV
vector 190 RSUExampleScenario.node[39].veinsmobility posx ETV
vector 191 RSUExampleScenario.node[39].veinsmobility posy ETV
vector 192 RSUExampleScenario.node[37].veinsmobility acceleration ETV
vector 193 RSUExampleScenario.node[37].veinsmobility co2emission ETV
vector 194 RSUExampleScenario.node[38].veinsmobility speed ETV
vector 195 RSUExampleScenario.node[40].veinsmobility posx ETV
vector 196 RSUExampleScenario.node[40].veinsmobility posy ETV
vector 197 RSUExampleScenario.node[38].veinsmobility acceleration ETV
vector 198 RSUExampleScenario.node[38].veinsmobility co2emission ETV
vector 199 RSUExampleScenario.node[39].veinsmobility speed ETV
vector 200 RSUExampleScenario.node[41].veinsmobility posx ETV
vector 201 RSUExampleScenario.node[41].veinsmobility posy ETV
vector 202 RSUExampleScenario.node[39].veinsmobility acceleration ETV
vector 203 RSUExampleScenario.node[39].veinsmobility co2emission ETV
vector 204 RSUExampleScenario.node[40].veinsmobility speed ETV
vector 205 RSUExampleScenario.node[42].veinsmobility posx ETV
vector 206 RSUExampleScenario.node[42].veinsmobility posy ETV
vector 207 RSUExampleScenario.node[40].veinsmobility acceleration ETV
vector 208 RSUExampleScenario.node[40].veinsmobility co2emission ETV
vector 209 RSUExampleScenario.node[41].veinsmobility speed ETV
vector 210 RSUExampleScenario.node[43].veinsmobility posx ETV
vector 211 RSUExampleScenario.node[43].veinsmobility posy ETV
vector 212 RSUExampleScenario.node[41].veinsmobility acceleration ETV
vector 213 RSUExampleScenario.node[41].veinsmobility co2emission ETV
vector 214 RSUExampleScenario.node[42].veinsmobility speed ETV
vector 215 RSUExampleScenario.node[44].veinsmobility posx ETV
vector 216 RSUExampleScenario.node[44].veinsmobility posy ETV
vector 217 RSUExampleScenario.node[42].veinsmobility acceleration ETV
vector 218 RSUExampleScenario.node[42].veinsmobility co2emission ETV
vector 219 RSUExampleScenario.node[43].veinsmobility speed ETV
vector 220 RSUExampleScenario.node[45].veinsmobility posx ETV
vector 221 RSUExampleScenario.node[45].veinsmobility posy ETV
vector 222 RSUExampleScenario.node[43].veinsmobility acceleration ETV
vector 223 RSUExampleScenario.node[43].veinsmobility co2emission ETV
vector 224 RSUExampleScenario.node[44].veinsmobility speed ETV
68	16	15	3.1903233488003
68	17	16	5.1085798251823
68	18	17	5.0708969815175
68	19	18	6.8938607970376
68	20	19	5.4271423069285
68	21	20	2.8612514273867
68	22	21	4.4804196800415
68	23	22	1.5733380720278
68	24	23	0.973
68	25	24	3.1570647301834
68	26	25	0.973
68	27	26	1.2082937556748
68	28	27	0.973
68	29	28	0.973
68	30	29	3.5018669868747
68	31	30	4.8825186145511
68	32	31	6.0693092463489
68	33	32	8.6010809590091
68	34	33	3.0291102690373
68	35	34	0.973
68	36	35	0.973
68	37	36	3.6957522274933
68	38	37	5.4515318732629
68	39	38	6.7150496441204
68	40	39	6.1135139782651
68	41	40	0.973
68	42	41	0.973
68	43	42	4.2558063705925
68	44	43	4.2382657698992
68	45	44	5.7265590080392
68	46	45	8.1210557438034
68	47	46	2.9669920391381
67	16	15	1.8044763513375
67	17	16	2.3003797754413
67	18	17	1.7447784148622
67	19	18	2.0656206130283
67	20	19	1.2808672754438
67	21	20	0.34834621399641
67	22	21	0.82437798765022
67	23	22	-0.11155393053778
67	24	23	-0.61102897066157
67	25	24	0.41633783890866
67	26	25	-0.63980741570704
67	27	26	-0.21767748030834
67	28	27	-2.8571422356696
67	29	28	-3.6874260860379
67	30	29	1.3187780663837
67	31	30	1.6929525283631
67	32	31	1.823176932591
67	33	32	2.2776585371932
67	34	33	0.36925160690935
67	35	34	-4.5
67	36	35	-4.0580294588351
67	37	36	1.6595953352517
67	38	37	2.0822698582662
67	39	38	2.1067606158089
67	40	39	1.558204368758
67	41	40	-2.904669539199
67	42	41	-4.5
67	43	42	1.9523198581301
67	44	43	1.5024545326829
67	45	44	1.8164076185087
67	46	45	2.256095147389
67	47	46	0.38751957883315
64	15	14	2.4864454656141
64	16	15	4.2909218169516
64	17	16	6.5913015923928
64	18	17	8.3360800072551
64	19	18	10.401700620283
64	20	19	11.682567895727
64	21	20	12.030914109724
64	22	21	12.855292097374
64	23	22	12.743738166836
64	24	23	12.132709196175
64	25	24	12.549047035083
64	26	25	11.909239619376
64	27	26	11.691562139068
64	28	27	8.8344199033982
64	29	28	5.1469938173603
64	30	29	6.465771883744
64	31	30	8.1587244121071
64	32	31	9.9819013446981
64	33	32	12.259559881891
64	34	33	12.628811488801
64	35	34	8.1288114888007
64	36	35	4.0707820299656
64	37	36	5.7303773652173
64	38	37	7.8126472234835
64	39	38	9.9194078392924
64	40	39	11.47761220805
64	41	40	8.5729426688514
64	42	41	4.0729426688514
64	43	42	6.0252625269815
64	44	43	7.5277170596644
64	45	44	9.3441246781731
64	46	45	11.600219825562
64	47	46	11.987739404395
53	14	13	619.89978579079
53	15	14	622.31299607221
53	16	15	626.47753407985
53	17	16	632.87469701413
53	18	17	640.96524806723
53	19	18	651.06057942611
53	20	19	662.39905169478
53	21	20	674.06512597954
53	22	21	686.51288828414
53	23	22	698.84847519163
53	24	23	710.59260291564
53	25	24	722.7397341797
53	26	25	734.26754951957
53	27	26	745.58465906488
53	28	27	754.13613376319
53	29	28	759.11828175738
53	30	29	765.39066772413
53	31	30	773.32012023706
53	32	31	783.04950219611
53	33	32	795.013291377
53	34	33	807.33742370417
53	35	34	815.27012176838
53	36	35	819.24269325358
53	37	36	824.8011975607
53	38	37	832.36920096371
53	39	38	841.91558274867
53	40	39	852.94099429529
53	41	40	861.17617591463
53	42	41	865.08865076706
53	43	42	870.92084144945
53	44	43	878.35421798334
53	45	44	887.68187682432
53	46	45	899.26748312024
53	47	46	911.24012081211
52	14	13	585.43084612638
52	15	14	586.03093078713
52	16	15	587.06651206105
52	17	16	588.65727245965
52	18	17	590.66912182948
52	19	18	593.17949298954
52	20	19	595.99899170339
52	21	20	598.92815618912
52	22	21	602.11215147914
52	23	22	605.3114294274
52	24	23	608.3573103515
52	25	24	611.50771166432
52	26	25	614.49749120907
52	27	26	617.43262346325
52	28	27	619.65047857081
52	29	28	620.94261621552
52	30	29	622.51016856797
52	31	30	624.42822372448
52	32	31	626.65780872478
52	33	32	629.33602598982
52	34	33	632.09490977455
52	35	34	633.87072583021
52	36	35	634.76002681816
52	37	36	636.14906950955
52	38	37	638.08494669767
52	39	38	640.7752719035
52	40	39	643.96483992763
52	41	40	646.34721557455
52	42	41	647.47906490569
52	43	42	648.98861507169
52	44	43	650.14767261321
52	45	44	650.68292090652
52	46	45	651.24115773864
52	47	46	651.81804315719
vector 225 RSUExampleScenario.node[44].veinsmobility acceleration ETV
vector 226 RSUExampleScenario.node[44].veinsmobility co2emission ETV
vector 227 RSUExampleScenario.node[45].veinsmobility speed ETV
23	7	6	2.6212285028239
23	8	7	4.1437077696626
23	9	8	3.9502505524035
23	10	9	5.8801827376402
23	11	10	5.096295793076
23	12	11	9.709603635426
23	13	12	1.7578663474524
23	14	13	6.2269869088249
23	15	14	0.973
23	16	15	2.4339545029126
23	17	16	0.973
23	18	17	0.973
23	19	18	5.0161371438061
23	20	19	3.712765812528
23	21	20	0.973
23	22	21	5.5827398011609
23	23	22	7.9582819459935
23	24	23	6.2599793325425
23	25	24	0.973
23	26	25	0.973
23	27	26	4.5764347119716
23	28	27	0.973
23	29	28	1.8663655991518
23	30	29	3.7390351894804
23	31	30	0.973
23	32	31	2.7175023829527
23	33	32	2.1109513785155
23	34	33	1.9545911901582
23	35	34	0.973
23	36	35	4.6597192157331
23	37	36	0.973
23	38	37	1.4737366224516
23	39	38	0.973
23	40	39	0.973
23	41	40	0.973
23	42	41	1.4561616459394
23	43	42	3.9494174724623
23	44	43	4.1629428483041
23	45	44	4.5197843881194
23	46	45	7.2405458268844
23	47	46	9.6405631186489
23	48	47	2.2318074814834
22	7	6	1.5165522359312
22	8	7	2.0134323110105
22	9	8	1.44122821528
22	10	9	1.9551215516869
22	11	10	1.3487495984649
22	12	11	2.5016913218657
22	13	12	-0.054204165752967
22	14	13	1.2318458341993
22	15	14	-1.1785082995193
22	16	15	0.15524382146541
22	17	16	-0.53840767504525
22	18	17	-4.5
22	19	18	1.4730104062939
22	20	19	0.80781512155882
22	21	20	-0.87366726486944
22	22	21	1.4594752020435
22	23	22	1.9505833046045
22	24	23	1.241874919209
22	25	24	-0.36581751315389
22	26	25	-0.6159113698639
22	27	26	0.76401713935193
22	28	27	-0.41900144477841
22	29	28	-0.034935570997185
22	30	29	0.50956982220523
22	31	30	-0.51862435210496
22	32	31	0.21868208255619
22	33	32	0.032754481583833
22	34	33	-0.014362950972281
22	35	34	-0.44685589151923
22	36	35	0.77967678224668
22	37	36	-0.80555513130967
22	38	37	-0.14906996374062
22	39	38	-4.5
22	40	39	-3.4182272098493
22	41	40	-2.1659281743358
22	42	41	0.24824194493704
22	43	42	2.0457452738192
22	44	43	1.6305679463316
22	45	44	1.4727941920981
22	46	45	2.1792344272602
22	47	46	2.4647032801062
22	48	47	0.090879554613242
19	6	5	2.1253627492348
19	7	6	3.6419149851659
19	8	7	5.6553472961765
19	9	8	7.0965755114565
19	10	9	9.0516970631434
19	11	10	10.400446661608
19	12	11	12.902137983474
19	13	12	12.847933817721
19	14	13	14.07977965192
19	15	14	12.901271352401
19	16	15	13.056515173866
19	17	16	12.518107498821
19	18	17	8.0181074988212
19	19	18	9.4911179051151
19	20	19	10.298933026674
19	21	20	9.4252657618045
19	22	21	10.884740963848
19	23	22	12.835324268453
19	24	23	14.077199187662
19	25	24	13.711381674508
19	26	25	13.095470304644
19	27	26	13.859487443996
19	28	27	13.440485999217
19	29	28	13.40555042822
19	30	29	13.915120250425
19	31	30	13.39649589832
19	32	31	13.615177980877
19	33	32	13.64793246246
19	34	33	13.633569511488
19	35	34	13.186713619969
19	36	35	13.966390402216
19	37	36	13.160835270906
19	38	37	13.011765307165
19	39	38	8.5117653071653
19	40	39	5.093538097316
19	41	40	2.9276099229802
19	42	41	3.1758518679173
19	43	42	5.2215971417364
19	44	43	6.852165088068
19	45	44	8.3249592801661
19	46	45	10.504193707426
19	47	46	12.968896987533
19	48	47	13.059776542146
11	5	4	865.10488917238
11	6	5	865.33196508404
11	7	6	865.72107097465
11	8	7	866.32529401539
11	9	8	867.08349934032
11	10	9	868.05059183471
11	11	10	869.16178610409
11	12	11	870.54026361149
11	13	12	871.83050828304
11	14	13	873.08049153178
11	15	14	874.12815857896
11	16	15	875.18843243298
11	17	16	876.20498408602
11	18	17	876.85610650472
11	19	18	877.10529989482
11	20	19	873.26081401164
11	21	20	864.8768138271
11	22	21	854.35708765077
11	23	22	842.00790238006
11	24	23	828.51269828844
11	25	24	815.37831140838
11	26	25	802.83391745592
11	27	26	789.49847139807
11	28	27	776.48595730657
11	29	28	763.46555776972
11	30	29	749.95429664235
11	31	30	736.94449654556
11	32	31	723.72074170787
11	33	32	710.63437275945
11	34	33	697.60664552271
11	35	34	684.91814023546
11	36	35	671.34641179607
11	37	36	658.55747512823
11	38	37	645.91339600827
11	39	38	637.64215598405
11	40	39	632.69255097792
11	41	40	630.64921082178
11	42	41	632.9203304565
11	43	42	637.99350786565
11	44	43	644.65090562825
11	45	44	652.73923458313
11	46	45	662.94485496543
11	47	46	675.54512140361
11	48	47	688.23368421758
10	5	4	715.68009089459
10	6	5	713.56726815839
10	7	6	709.94684111047
10	8	7	704.32486135535
10	9	8	697.27015688422
10	10	9	688.27186642152
10	11	10	677.93278421956
10	12	11	665.10677111336
10	13	12	652.32321018884
10	14	13	638.29678084956
10	15	14	625.439258231
10	16	15	612.42701822906
10	17	16	599.95136013992
10	18	17	591.96044236847
10	19	18	582.48414416247
10	20	19	573.23150366529
10	21	20	569.30786932393
10	22	21	566.51185605152
10	23	22	563.0251317874
10	24	23	559.02190933586
10	25	24	555.0853158189
10	26	25	551.32555296447
10	27	26	547.54461276229
10	28	27	544.17430741949
10	29	28	540.98387839391
10	30	29	537.66637003212
10	31	30	534.47070435159
10	32	31	531.22295016345
10	33	32	527.37290479924
10	34	33	523.36926179478
10	35	34	519.8049503653
10	36	35	516.49675450041
10	37	36	513.37936915117
10	38	37	510.29729375843
10	39	38	508.28112594548
10	40	39	507.07462797529
10	41	40	505.29252761581
10	42	41	503.83491375543
10	43	42	505.07174486032
10	44	43	506.69480590595
10	45	44	508.66672528331
10	46	45	511.15483632605
10	47	46	514.2267575706
10	48	47	517.3202053054
vector 228 RSUExampleScenario.node[46].veinsmobility posx ETV
vector 229 RSUExampleScenario.node[46].veinsmobility posy ETV
vector 230 RSUExampleScenario.node[47].veinsmobility posx ETV
vector 231 RSUExampleScenario.node[47].veinsmobility posy ETV
vector 232 RSUExampleScenario.node[45].veinsmobility acceleration ETV
vector 233 RSUExampleScenario.node[45].veinsmobility co2emission ETV
vector 234 RSUExampleScenario.node[48].veinsmobility posx ETV
vector 235 RSUExampleScenario.node[48].veinsmobility posy ETV
vector 236 RSUExampleScenario.node[46].veinsmobility speed ETV
vector 237 RSUExampleScenario.node[47].veinsmobility speed ETV
vector 238 RSUExampleScenario.node[46].veinsmobility acceleration ETV
vector 239 RSUExampleScenario.node[46].veinsmobility co2emission ETV
vector 240 RSUExampleScenario.node[47].veinsmobility acceleration ETV
vector 241 RSUExampleScenario.node[47].veinsmobility co2emission ETV
vector 242 RSUExampleScenario.node[48].veinsmobility speed ETV
vector 243 RSUExampleScenario.node[49].veinsmobility posx ETV
vector 244 RSUExampleScenario.node[49].veinsmobility posy ETV
vector 245 RSUExampleScenario.node[48].veinsmobility acceleration ETV
vector 246 RSUExampleScenario.node[48].veinsmobility co2emission ETV
83	19	18	3.1261287497072
83	20	19	4.3965252215164
83	21	20	6.8617852595912
83	22	21	8.5229705992383
83	23	22	10.182381257675
83	24	23	9.3442811611215
83	25	24	8.660087443582
83	26	25	13.948553053817
83	27	26	11.239517415171
83	28	27	14.14024379489
83	29	28	13.008495837051
83	30	29	18.845732624362
83	31	30	12.044342556427
83	32	31	4.5007223987093
83	33	32	6.2521251855088
83	34	33	1.3543849458856
83	35	34	10.714588484301
83	36	35	5.0680484680763
83	37	36	5.5428077950798
83	38	37	4.7143230102956
83	39	38	1.3546684287803
83	40	39	0.55742861377122
83	41	40	7.7664694718185
83	42	41	1.3383036591967
83	43	42	7.6290811154956
83	44	43	5.6524129910904
83	45	44	7.6433345556351
83	46	45	1.4974778916076
83	47	46	0.973
83	48	47	0.973
83	49	48	0.64939077862639
83	50	49	2.7097943901952
83	51	50	2.2662304006234
83	52	51	6.5979491840707
82	19	18	1.9681667215191
82	20	19	2.0848777350271
82	21	20	2.5767042224528
82	22	21	2.5374351908918
82	23	22	2.5068282209337
82	24	23	1.9166256733937
82	25	24	1.5316289365292
82	26	25	2.4010498466436
82	27	26	1.6287257336313
82	28	27	1.949986792868
82	29	28	1.5787855621893
82	30	29	2.2670871848008
82	31	30	1.1235623334483
82	32	31	0.0035708208801211
82	33	32	0.25132240208332
82	34	33	-0.45874350469094
82	35	34	0.87796412145253
82	36	35	0.057079267362134
82	37	36	0.12042586156167
82	38	37	0.0010322732385255
82	39	38	-0.47201997973025
82	40	39	-0.57803875263781
82	41	40	0.4729332776973
82	42	41	-0.4615495586535
82	43	42	0.45320119382814
82	44	43	0.15550887668505
82	45	44	0.42333593051881
82	46	45	-0.45143584576435
82	47	46	-2.557601600291
82	48	47	-2.846286801344
82	49	48	-0.47867036152165
82	50	49	-0.095184519467875
82	51	50	-0.17284442756791
82	52	51	0.5996329942951
79	18	17	1.8798766718246
79	19	18	3.8480433933437
79	20	19	5.9329211283708
79	21	20	8.5096253508236
79	22	21	11.047060541715
79	23	22	13.553888762649
79	24	23	15.470514436043
79	25	24	17.002143372572
79	26	25	19.403193219216
79	27	26	21.031918952847
79	28	27	22.981905745715
79	29	28	24.560691307904
79	30	29	26.827778492705
79	31	30	27.951340826153
79	32	31	27.954911647033
79	33	32	28.206234049117
79	34	33	27.747490544426
79	35	34	28.625454665878
79	36	35	28.68253393324
79	37	36	28.802959794802
79	38	37	28.803992068041
79	39	38	28.33197208831
79	40	39	27.753933335673
79	41	40	28.22686661337
79	42	41	27.765317054716
79	43	42	28.218518248545
79	44	43	28.37402712523
79	45	44	28.797363055748
79	46	45	28.345927209984
79	47	46	25.788325609693
79	48	47	22.942038808349
79	49	48	22.463368446827
79	50	49	22.36818392736
79	51	50	22.195339499792
79	52	51	22.794972494087
71	17	16	1494.7505537435
71	18	17	1494.9534896531
71	19	18	1495.3688925346
71	20	19	1496.0093615419
71	21	20	1496.9279901876
71	22	21	1498.1205393123
71	23	22	1499.5837048412
71	24	23	1501.2537733975
71	25	24	1503.0891839233
71	26	25	1505.1837918965
71	27	26	1507.4542236049
71	28	27	1509.9351597307
71	29	28	1512.6114854549
71	30	29	1515.5651121579
71	31	30	1518.6424383954
71	32	31	1521.7201577654
71	33	32	1524.8255466854
71	34	33	1527.8804298557
71	35	34	1531.03197322
71	36	35	1534.1898007739
71	37	36	1537.3608867138
71	38	37	1540.5320863026
71	39	38	1543.6513184571
71	40	39	1546.7069109519
71	41	40	1549.8215165603
71	42	41	1552.9907849057
71	43	42	1556.2259188871
71	44	43	1562.3564033972
71	45	44	1565.3392270647
71	46	45	1568.2752911201
71	47	46	1570.946439441
71	48	47	1575.4547358189
71	49	48	1582.4653493504
71	50	49	1594.5824351248
71	51	50	1611.2320611731
71	52	51	1630.6671112459
70	17	16	124.08004396034
70	18	17	125.94887873802
70	19	18	129.77431975087
70	20	19	135.67239248305
70	21	20	144.13203456436
70	22	21	155.11420761908
70	23	22	168.58848445441
70	24	23	183.96812921516
70	25	24	200.8704065326
70	26	25	220.15963057033
70	27	26	241.06801364117
70	28	27	263.91492980258
70	29	28	288.32862085553
70	30	29	314.99251106575
70	31	30	342.77309987669
70	32	31	370.55723769472
70	33	32	398.59116261078
70	34	33	426.16914644149
70	35	34	454.61973099645
70	36	35	483.1270461271
70	37	36	511.75405144947
70	38	37	540.38208273901
70	39	38	568.54097757285
70	40	39	596.12536483642
70	41	40	624.17905189119
70	42	41	651.76680251591
70	43	42	679.80463035507
70	44	43	707.42793895998
70	45	44	736.06975599626
70	46	45	764.26257557145
70	47	46	789.91160817054
70	48	47	812.38574411522
70	49	48	833.52927665519
70	50	49	852.24938698416
70	51	50	866.75276537296
70	52	51	877.72329812257
vector 247 RSUExampleScenario.node[50].veinsmobility posx ETV
vector 248 RSUExampleScenario.node[50].veinsmobility posy ETV
vector 249 RSUExampleScenario.node[49].veinsmobility speed ETV
vector 250 RSUExampleScenario.node[51].veinsmobility posx ETV
vector 251 RSUExampleScenario.node[51].veinsmobility posy ETV
vector 252 RSUExampleScenario.node[49].veinsmobility acceleration ETV
vector 253 RSUExampleScenario.node[49].veinsmobility co2emission ETV
vector 254 RSUExampleScenario.node[50].veinsmobility speed ETV
vector 255 RSUExampleScenario.node[52].veinsmobility posx ETV
vector 256 RSUExampleScenario.node[52].veinsmobility posy ETV
vector 257 RSUExampleScenario.node[53].veinsmobility posx ETV
vector 258 RSUExampleScenario.node[53].veinsmobility posy ETV
vector 259 RSUExampleScenario.node[50].veinsmobility acceleration ETV
vector 260 RSUExampleScenario.node[50].veinsmobility co2emission ETV
vector 261 RSUExampleScenario.node[51].veinsmobility speed ETV
vector 262 RSUExampleScenario.node[54].veinsmobility posx ETV
vector 263 RSUExampleScenario.node[54].veinsmobility posy ETV
vector 264 RSUExampleScenario.node[51].veinsmobility acceleration ETV
vector 265 RSUExampleScenario.node[51].veinsmobility co2emission ETV
vector 266 RSUExampleScenario.node[52].veinsmobility speed ETV
vector 267 RSUExampleScenario.node[53].veinsmobility speed ETV
vector 268 RSUExampleScenario.node[55].veinsmobility posx ETV
vector 269 RSUExampleScenario.node[55].veinsmobility posy ETV
vector 270 RSUExampleScenario.node[52].veinsmobility acceleration ETV
vector 271 RSUExampleScenario.node[52].veinsmobility co2emission ETV
vector 272 RSUExampleScenario.node[53].veinsmobility acceleration ETV
vector 273 RSUExampleScenario.node[53].veinsmobility co2emission ETV
vector 274 RSUExampleScenario.node[54].veinsmobility speed ETV
vector 275 RSUExampleScenario.node[56].veinsmobility posx ETV
vector 276 RSUExampleScenario.node[56].veinsmobility posy ETV
vector 277 RSUExampleScenario.node[54].veinsmobility acceleration ETV
vector 278 RSUExampleScenario.node[54].veinsmobility co2emission ETV
vector 279 RSUExampleScenario.node[55].veinsmobility speed ETV
vector 280 RSUExampleScenario.node[57].veinsmobility posx ETV
vector 281 RSUExampleScenario.node[57].veinsmobility posy ETV
vector 282 RSUExampleScenario.node[55].veinsmobility acceleration ETV
vector 283 RSUExampleScenario.node[55].veinsmobility co2emission ETV
vector 284 RSUExampleScenario.node[56].veinsmobility speed ETV
vector 285 RSUExampleScenario.node[58].veinsmobility posx ETV
vector 286 RSUExampleScenario.node[58].veinsmobility posy ETV
vector 287 RSUExampleScenario.node[56].veinsmobility acceleration ETV
vector 288 RSUExampleScenario.node[56].veinsmobility co2emission ETV
vector 289 RSUExampleScenario.node[57].veinsmobility speed ETV
vector 290 RSUExampleScenario.node[59].veinsmobility posx ETV
vector 291 RSUExampleScenario.node[59].veinsmobility posy ETV
vector 292 RSUExampleScenario.node[57].veinsmobility acceleration ETV
vector 293 RSUExampleScenario.node[57].veinsmobility co2emission ETV
vector 294 RSUExampleScenario.node[58].veinsmobility speed ETV
vector 295 RSUExampleScenario.node[60].veinsmobility posx ETV
vector 296 RSUExampleScenario.node[60].veinsmobility posy ETV
vector 297 RSUExampleScenario.node[58].veinsmobility acceleration ETV
vector 298 RSUExampleScenario.node[58].veinsmobility co2emission ETV
vector 299 RSUExampleScenario.node[59].veinsmobility speed ETV
vector 300 RSUExampleScenario.node[61].veinsmobility posx ETV
vector 301 RSUExampleScenario.node[61].veinsmobility posy ETV
vector 302 RSUExampleScenario.node[59].veinsmobility acceleration ETV
vector 303 RSUExampleScenario.node[59].veinsmobility co2emission ETV
vector 304 RSUExampleScenario.node[60].veinsmobility speed ETV
vector 305 RSUExampleScenario.node[62].veinsmobility posx ETV
vector 306 RSUExampleScenario.node[62].veinsmobility posy ETV
vector 307 RSUExampleScenario.node[60].veinsmobility acceleration ETV
vector 308 RSUExampleScenario.node[60].veinsmobility co2emission ETV
vector 309 RSUExampleScenario.node[61].veinsmobility speed ETV
158	34	33	3.3136432736131
158	35	34	3.8028107934367
158	36	35	4.5718677764195
158	37	36	5.1533034524825
158	38	37	5.8924581384317
158	39	38	0.973
158	40	39	0.973
158	41	40	0.973
158	42	41	1.2664934137209
158	43	42	6.1976372694396
158	44	43	4.9339143643044
158	45	44	5.6430089062687
158	46	45	7.7987670144934
158	47	46	0.973
158	48	47	0.973
158	49	48	3.5785584359062
158	50	49	4.6735592051354
158	51	50	5.7006146208014
158	52	51	5.7295513262091
158	53	52	9.4233798438238
158	54	53	9.6840566744931
158	55	54	0.973
158	56	55	0.973
158	57	56	0.973
158	58	57	0.973
158	59	58	0.973
158	60	59	1.4037898881153
158	61	60	3.995042517002
158	62	61	5.4591717505594
158	63	62	5.4090272035531
158	64	63	6.246579810639
157	34	33	2.179862521519
157	35	34	1.7788779435912
157	36	35	1.7345255633816
157	37	36	1.6366048923461
157	38	37	1.6270435677376
157	39	38	-0.43511880873051
157	40	39	-3.4794807026046
157	41	40	-0.40005173353836
157	42	41	-0.10984903732315
157	43	42	2.2693369004279
157	44	43	1.3766858822666
157	45	44	1.4226193039445
157	46	45	1.851716242102
157	47	46	-3.5210013726161
157	48	47	-4.5
157	49	48	1.3706118613016
157	50	49	1.6085813635029
157	51	50	1.7117402136093
157	52	51	1.4578180810902
157	53	52	2.2820865870221
157	54	53	2.0004731061765
157	55	54	-0.44602779429406
157	56	55	-0.90026242065854
157	57	56	-4.5
157	58	57	-4.5
157	59	58	-1.0731908190438
157	60	59	0.084685141616501
157	61	60	1.7907247425057
157	62	61	2.0304161521606
157	63	62	1.6184831429971
157	64	63	1.6433532631025
154	33	32	1.6529342174064
154	34	33	3.8327967389254
154	35	34	5.6116746825166
154	36	35	7.3462002458982
154	37	36	8.9828051382443
154	38	37	10.609848705982
154	39	38	10.174729897251
154	40	39	6.6952491946467
154	41	40	6.2951974611084
154	42	41	6.1853484237852
154	43	42	8.4546853242131
154	44	43	9.8313712064797
154	45	44	11.253990510424
154	46	45	13.105706752526
154	47	46	9.5847053799101
154	48	47	5.0847053799101
154	49	48	6.4553172412117
154	50	49	8.0638986047146
154	51	50	9.7756388183239
154	52	51	11.233456899414
154	53	52	13.515543486436
154	54	53	15.516016592613
154	55	54	15.069988798319
154	56	55	14.16972637766
154	57	56	9.6697263776601
154	58	57	5.1697263776601
154	59	58	4.0965355586162
154	60	59	4.1812207002327
154	61	60	5.9719454427384
154	62	61	8.002361594899
154	63	62	9.6208447378962
154	64	63	11.264198000999
143	32	31	492.06915289588
143	33	32	493.54679599862
143	34	33	496.97313057736
143	35	34	501.98969584785
143	36	35	508.55684293114
143	37	36	516.58703549175
143	38	37	526.07172616875
143	39	38	535.16744171303
143	40	39	541.15267009624
143	41	40	546.03443049337
143	42	41	544.58565428651
143	43	42	539.89269127322
143	44	43	534.35388463755
143	45	44	527.92329921327
143	46	45	520.26809667091
143	47	46	514.66955380881
143	48	47	511.69951561961
143	49	48	508.03343943685
143	50	49	503.47331000539
143	51	50	498.09417906948
143	52	51	491.94991258858
143	53	52	484.55706027617
143	54	53	476.04108952933
143	55	54	467.74314026673
143	56	55	459.94090019076
143	57	56	454.61648356784
143	58	57	451.76989039797
143	59	58	451.67532626763
143	60	59	454.78663917338
143	61	60	458.07495616857
143	62	61	462.4812759996
143	63	62	467.77877705065
143	64	63	473.98115349213
142	32	31	655.99469597305
142	33	32	655.25401808612
142	34	33	653.53654635632
142	35	34	651.0219615034
142	36	35	647.73013777698
142	37	36	643.70495331506
142	38	37	638.95069253601
142	39	38	634.39140798555
142	40	39	631.39127466281
142	41	40	627.66154857981
142	42	41	621.98928344767
142	43	42	614.95596551129
142	44	43	606.8330453321
142	45	44	597.5967106781
142	46	45	586.95816634494
142	47	46	579.1777913503
142	48	47	575.05028684965
142	49	48	569.73630156384
142	50	49	563.08436964088
142	51	50	554.92059511871
142	52	51	545.51455754302
142	53	52	534.19806395126
142	54	53	521.2357817264
142	55	54	508.65354746142
142	56	55	496.82296024996
142	57	56	488.74951280483
142	58	57	484.43320512603
142	59	58	480.94018805982
142	60	59	483.19898254227
142	61	60	488.18507892122
142	62	61	494.86641024851
142	63	62	502.89904543751
142	64	63	512.3037490476
vector 310 RSUExampleScenario.node[63].veinsmobility posx ETV
vector 311 RSUExampleScenario.node[63].veinsmobility posy ETV
vector 312 RSUExampleScenario.node[61].veinsmobility acceleration ETV
vector 313 RSUExampleScenario.node[61].veinsmobility co2emission ETV
vector 314 RSUExampleScenario.node[62].veinsmobility speed ETV
vector 315 RSUExampleScenario.node[64].veinsmobility posx ETV
vector 316 RSUExampleScenario.node[64].veinsmobility posy ETV
vector 317 RSUExampleScenario.node[62].veinsmobility acceleration ETV
vector 318 RSUExampleScenario.node[62].veinsmobility co2emission ETV
vector 319 RSUExampleScenario.node[63].veinsmobility speed ETV
vector 320 RSUExampleScenario.node[65].veinsmobility posx ETV
vector 321 RSUExampleScenario.node[65].veinsmobility posy ETV
vector 322 RSUExampleScenario.node[63].veinsmobility acceleration ETV
vector 323 RSUExampleScenario.node[63].veinsmobility co2emission ETV
vector 324 RSUExampleScenario.node[64].veinsmobility speed ETV
vector 325 RSUExampleScenario.node[66].veinsmobility posx ETV
vector 326 RSUExampleScenario.node[66].veinsmobility posy ETV
vector 327 RSUExampleScenario.node[64].veinsmobility acceleration ETV
vector 328 RSUExampleScenario.node[64].veinsmobility co2emission ETV
vector 329 RSUExampleScenario.node[65].veinsmobility speed ETV
vector 330 RSUExampleScenario.node[67].veinsmobility posx ETV
vector 331 RSUExampleScenario.node[67].veinsmobility posy ETV
vector 332 RSUExampleScenario.node[65].veinsmobility acceleration ETV
vector 333 RSUExampleScenario.node[65].veinsmobility co2emission ETV
vector 334 RSUExampleScenario.node[66].veinsmobility speed ETV
vector 335 RSUExampleScenario.node[68].veinsmobility posx ETV
vector 336 RSUExampleScenario.node[68].veinsmobility posy ETV
vector 337 RSUExampleScenario.node[66].veinsmobility acceleration ETV
vector 338 RSUExampleScenario.node[66].veinsmobility co2emission ETV
vector 339 RSUExampleScenario.node[67].veinsmobility speed ETV
18	6	5	3.8208455939494
18	7	6	4.7989722357191
18	8	7	7.331722189765
18	9	8	8.3357922750778
18	10	9	3.9184148636409
18	11	10	0.973
18	12	11	0.973
18	13	12	6.2112961636115
18	14	13	3.3637766060969
18	15	14	5.3041934840065
18	16	15	7.7225970911766
18	17	16	10.652490290039
18	18	17	10.751641030118
18	19	18	8.1541733542938
18	20	19	13.480814030532
18	21	20	12.204350542823
18	22	21	17.912631889331
18	23	22	0.973
18	24	23	0.973
18	25	24	0.973
18	26	25	0.973
18	27	26	0.973
18	28	27	0.973
18	29	28	2.5232488749506
18	30	29	3.7621587530484
18	31	30	5.5873880918755
18	32	31	6.6585641024647
18	33	32	7.967762477542
18	34	33	0.973
18	35	34	8.2728124199757
18	36	35	8.0255749008513
18	37	36	0.973
18	38	37	0.973
18	39	38	2.0208521071341
18	40	39	8.2359255851536
18	41	40	7.8152136293939
18	42	41	8.2313347895345
18	43	42	4.7305534502485
18	44	43	0.973
18	45	44	0.973
18	46	45	0.973
18	47	46	6.6575086813208
18	48	47	6.667431520899
18	49	48	4.8016959670064
18	50	49	0.973
18	51	50	3.4315784108871
18	52	51	1.4981332751041
18	53	52	1.4943687874056
18	54	53	8.0225414929383
18	55	54	1.5261022919562
18	56	55	0.973
18	57	56	1.3854859546683
18	58	57	7.0785375510126
18	59	58	5.5042930975479
18	60	59	9.9849942886063
18	61	60	0.973
18	62	61	0.973
18	63	62	0.973
18	64	63	3.0639261961459
18	65	64	4.9086130223132
18	66	65	7.4775964971483
18	67	66	8.8772496924815
18	68	67	6.2904009265256
18	69	68	3.1814115767575
18	70	69	0.973
17	6	5	2.3478866785532
17	7	6	2.1277886533644
17	8	7	2.5967283024685
17	9	8	2.359660308552
17	10	9	0.69926745190937
17	11	10	-3.4465056868897
17	12	11	-3.7965130416676
17	13	12	2.5888129123719
17	14	13	0.88402430143909
17	15	14	1.5147052048706
17	16	15	2.0376957817236
17	17	16	2.4637650594814
17	18	17	2.1130978513975
17	19	18	1.3142850321019
17	20	19	2.2041026292834
17	21	20	1.7301737446804
17	22	21	2.450429067295
17	23	22	-4.0064031333757
17	24	23	-4.5
17	25	24	-4.5
17	26	25	-4.5
17	27	26	-2.2414731331116
17	28	27	-0.35770719361026
17	29	28	0.94394096226897
17	30	29	1.4645417755703
17	31	30	1.9570178572088
17	32	31	1.9585895166012
17	33	32	2.0199117310578
17	34	33	-1.5027712477757
17	35	34	2.0212830494549
17	36	35	1.6729553929064
17	37	36	-3.7623206907315
17	38	37	-2.7176933166102
17	39	38	0.22183315551374
17	40	39	2.4706868049456
17	41	40	1.9112374317134
17	42	41	1.7500303386245
17	43	42	0.69632933789465
17	44	43	-4.5
17	45	44	-4.415327098455
17	46	45	-0.6310569385998
17	47	46	2.5611609236337
17	48	47	2.0061168105574
17	49	48	1.0984817237783
17	50	49	-4.4602012829622
17	51	50	0.99562071640044
17	52	51	-0.019537278823554
17	53	52	-0.020856798556633
17	54	53	2.5219419202069
17	55	54	-0.07335261426233
17	56	55	-3.0789522637291
17	57	56	-0.060356498183682
17	58	57	2.3636077115778
17	59	58	1.4191120845731
17	60	59	2.474105329439
17	61	60	-1.2403058398573
17	62	61	-3.8014315275708
17	63	62	-3.0571885947714
17	64	63	1.0550544685218
17	65	64	1.7205195409479
17	66	65	2.2990668435348
17	67	66	2.2800610841252
17	68	67	1.2666106225463
17	69	68	0.32408860891592
17	70	69	-0.86834551710635
14	5	4	2.0537621400552
14	6	5	4.4016488186084
14	7	6	6.5294374719728
14	8	7	9.1261657744413
14	9	8	11.485826082993
14	10	9	12.185093534903
14	11	10	8.738587848013
14	12	11	4.9420748063453
14	13	12	7.5308877187173
14	14	13	8.4149120201563
14	15	14	9.9296172250269
14	16	15	11.96731300675
14	17	16	14.431078066232
14	18	17	16.544175917629
14	19	18	17.858460949731
14	20	19	20.062563579015
14	21	20	21.792737323695
14	22	21	24.24316639099
14	23	22	20.236763257614
14	24	23	15.736763257614
14	25	24	11.236763257614
14	26	25	6.7367632576144
14	27	26	4.4952901245028
14	28	27	4.1375829308925
14	29	28	5.0815238931615
14	30	29	6.5460656687317
14	31	30	8.5030835259406
14	32	31	10.461673042542
14	33	32	12.4815847736
14	34	33	10.978813525824
14	35	34	13.000096575279
14	36	35	14.673051968185
14	37	36	10.910731277454
14	38	37	8.1930379608436
14	39	38	8.4148711163573
14	40	39	10.885557921303
14	41	40	12.796795353016
14	42	41	14.546825691641
14	43	42	15.243155029535
14	44	43	10.743155029535
14	45	44	6.3278279310804
14	46	45	5.6967709924806
14	47	46	8.2579319161143
14	48	47	10.264048726672
14	49	48	11.36253045045
14	50	49	6.9023291674878
14	51	50	7.8979498838883
14	52	51	7.8784126050647
14	53	52	7.8575558065081
14	54	53	10.379497726715
14	55	54	10.306145112453
14	56	55	7.2271928487236
14	57	56	7.1668363505399
14	58	57	9.5304440621177
14	59	58	10.949556146691
14	60	59	13.42366147613
14	61	60	12.183355636273
14	62	61	8.3819241087018
14	63	62	5.3247355139304
14	64	63	6.3797899824522
14	65	64	8.1003095234001
14	66	65	10.399376366935
14	67	66	12.67943745106
14	68	67	13.946048073606
14	69	68	14.270136682522
14	70	69	13.401791165416
6	4	3	1363.2386762021
6	5	4	1363.1777383419
6	6	5	1363.0471355543
6	7	6	1362.8533984413
6	8	7	1362.5826129382
6	9	8	1362.2418131686
6	10	9	1361.8802652015
6	11	10	1361.6209796522
6	12	11	1361.4743417053
6	13	12	1362.47709485
6	14	13	1368.2750094409
6	15	14	1377.6287437689
6	16	15	1388.9019946856
6	17	16	1402.6621582341
6	18	17	1418.6236832736
6	19	18	1435.8742160671
6	20	19	1454.8810151729
6	21	20	1474.5862117427
6	22	21	1496.921110706
6	23	22	1515.7093139756
6	24	23	1530.93266189
6	25	24	1541.2658390924
6	26	25	1547.4546915818
6	27	26	1551.5439239615
6	28	27	1554.5258197429
6	29	28	1552.1818180736
6	30	29	1553.743817389
6	31	30	1554.0199322934
6	32	31	1555.1349936454
6	33	32	1567.9559364766
6	34	33	1578.9463072831
6	35	34	1590.1351515727
6	36	35	1594.532695487
6	37	36	1591.843875441
6	38	37	1588.3604863329
6	39	38	1587.4868739242
6	40	39	1585.3943010664
6	41	40	1583.7865909854
6	42	41	1583.5529972099
6	43	42	1584.7699310394
6	44	43	1585.7435791706
6	45	44	1588.6584102998
6	46	45	1594.247941119
6	47	46	1602.4905805687
6	48	47	1612.7356217977
6	49	48	1624.0771105251
6	50	49	1630.9666576015
6	51	50	1638.8447619413
6	52	51	1643.8841915437
6	53	52	1644.4932552353
6	54	53	1644.7840769269
6	55	54	1645.20186825
6	56	55	1649.2916646775
6	57	56	1656.410406429
6	58	57	1665.9360876505
6	59	58	1676.8824868411
6	60	59	1690.3061483172
6	61	60	1702.4895039535
6	62	61	1710.8714280622
6	63	62	1715.864642044
6	64	63	1717.0651344905
6	65	64	1716.4893467922
6	66	65	1715.7501363996
6	67	66	1714.8488542837
6	68	67	1713.8575387174
6	69	68	1712.8431862248
6	70	69	1711.8905576287
5	4	3	1045.3123280584
5	5	4	1043.2595034239
5	6	5	1038.859863879
5	7	6	1032.333406978
5	8	7	1023.2114071343
5	9	8	1011.7308241247
5	10	9	999.55129286623
5	11	10	990.81669402667
5	12	11	985.87687518874
5	13	12	978.48377218555
5	14	13	972.80039775519
5	15	14	969.46725735101
5	16	15	965.4501101027
5	17	16	961.09564576734
5	18	17	956.7544418593
5	19	18	952.1424154712
5	20	19	945.81292273898
5	21	20	936.51164861201
5	22	21	927.10581467194
5	23	22	919.64466220237
5	24	23	915.66961998736
5	25	24	911.25802113276
5	26	25	908.59548814857
5	27	26	906.73481705732
5	28	27	904.06652710779
5	29	28	899.40528876122
5	30	29	891.76028519211
5	31	30	883.90602660007
5	32	31	873.25452581848
5	33	32	871.46618372839
5	34	33	868.95612630054
5	35	34	875.97502116518
5	36	35	890.58441958885
5	37	36	902.41451602182
5	38	37	909.83317567054
5	39	38	918.25383171079
5	40	39	929.05959659396
5	41	40	941.5013148396
5	42	41	955.94538860805
5	43	42	971.06276991514
5	44	43	981.71285057499
5	45	44	986.90305184885
5	46	45	987.35854967353
5	47	46	986.8328711372
5	48	47	986.17948840576
5	49	48	985.4561791757
5	50	49	985.01679479582
5	51	50	985.04144432616
5	52	51	990.44553000752
5	53	52	998.26216539615
5	54	53	1008.6403451901
5	55	54	1018.9312359399
5	56	55	1024.3587429311
5	57	56	1024.6476690264
5	58	57	1024.3904756334
5	59	58	1024.0945368147
5	60	59	1023.7316153203
5	61	60	1023.4037687895
5	62	61	1023.1782164194
5	63	62	1021.7540866654
5	64	63	1015.7281708763
5	65	64	1007.648535956
5	66	65	997.27570215257
5	67	66	984.62862671644
5	68	67	970.7181734567
5	69	68	956.48445876674
5	70	69	943.11687329597
vector 340 RSUExampleScenario.node[69].veinsmobility posx ETV
vector 341 RSUExampleScenario.node[69].veinsmobility posy ETV
vector 342 RSUExampleScenario.node[67].veinsmobility acceleration ETV
vector 343 RSUExampleScenario.node[67].veinsmobility co2emission ETV
vector 344 RSUExampleScenario.node[68].veinsmobility speed ETV
vector 345 RSUExampleScenario.node[70].veinsmobility posx ETV
vector 346 RSUExampleScenario.node[70].veinsmobility posy ETV
vector 347 RSUExampleScenario.node[68].veinsmobility acceleration ETV
vector 348 RSUExampleScenario.node[68].veinsmobility co2emission ETV
vector 349 RSUExampleScenario.node[69].veinsmobility speed ETV
vector 350 RSUExampleScenario.node[71].veinsmobility posx ETV
vector 351 RSUExampleScenario.node[71].veinsmobility posy ETV
vector 352 RSUExampleScenario.node[69].veinsmobility acceleration ETV
vector 353 RSUExampleScenario.node[69].veinsmobility co2emission ETV
vector 354 RSUExampleScenario.node[70].veinsmobility speed ETV
vector 355 RSUExampleScenario.node[70].veinsmobility acceleration ETV
vector 356 RSUExampleScenario.node[70].veinsmobility co2emission ETV
vector 357 RSUExampleScenario.node[71].veinsmobility speed ETV
vector 358 RSUExampleScenario.node[72].veinsmobility posx ETV
vector 359 RSUExampleScenario.node[72].veinsmobility posy ETV
vector 360 RSUExampleScenario.node[71].veinsmobility acceleration ETV
vector 361 RSUExampleScenario.node[71].veinsmobility co2emission ETV
308	64	63	3.3669087259298
308	65	64	4.5756287645197
308	66	65	6.186528569213
308	67	66	7.7740437711755
308	68	67	0.973
308	69	68	0.973
308	70	69	0.973
308	71	70	0.973
308	72	71	1.6853783737417
308	73	72	0.973
308	74	73	4.7208939896501
308	76	74	5.0195566802732
307	64	63	1.9577674625907
307	65	64	2.0425390014425
307	66	65	2.2233899417799
307	67	66	2.2945644963998
307	68	67	-0.41907809183444
307	69	68	-2.921952340938
307	70	69	-3.015456328355
307	71	70	-0.71055891821643
307	72	71	0.36392385577783
307	73	72	-0.13842443837784
307	74	73	2.1887489315355
307	76	74	1.7956614896888
304	63	62	2.36755074088
304	64	63	4.3253182034707
304	65	64	6.3678572049132
304	66	65	8.5912471466931
304	67	66	10.885811643093
304	68	67	10.466733551258
304	69	68	7.5447812103204
304	70	69	4.5293248819655
304	71	70	3.818765963749
304	72	71	4.1826898195269
304	73	72	4.044265381149
304	74	73	6.2330143126845
304	76	74	8.0286758023733
296	62	61	1228.1903588907
296	63	62	1228.3251509313
296	64	63	1228.5714047735
296	65	64	1228.9339467253
296	66	65	1229.4230731942
296	67	66	1230.0428363693
296	68	67	1230.6387401229
296	69	68	1231.0682880254
296	70	69	1231.3261566035
296	71	70	1231.1846281046
296	72	71	1227.945580093
296	73	72	1224.1842987465
296	74	73	1218.568039305
296	76	74	1211.3337985322
295	62	61	684.41748776509
295	63	62	682.05341303672
295	64	63	677.73444521886
295	65	64	671.37593723334
295	66	65	662.79730366321
295	67	66	651.92747445156
295	68	67	641.47610804581
295	69	68	633.94240400203
295	70	69	629.41972902609
295	71	70	625.61060613113
295	72	71	623.78796065684
295	73	72	625.24958618652
295	74	73	627.95434916908
295	76	74	631.43832401975
vector 362 RSUExampleScenario.node[73].veinsmobility posx ETV
vector 363 RSUExampleScenario.node[73].veinsmobility posy ETV
vector 364 RSUExampleScenario.node[74].veinsmobility posx ETV
vector 365 RSUExampleScenario.node[74].veinsmobility posy ETV
vector 366 RSUExampleScenario.node[72].veinsmobility speed ETV
vector 367 RSUExampleScenario.node[75].veinsmobility posx ETV
vector 368 RSUExampleScenario.node[75].veinsmobility posy ETV
vector 369 RSUExampleScenario.node[72].veinsmobility acceleration ETV
vector 370 RSUExampleScenario.node[72].veinsmobility co2emission ETV
vector 371 RSUExampleScenario.node[73].veinsmobility speed ETV
vector 372 RSUExampleScenario.node[74].veinsmobility speed ETV
vector 373 RSUExampleScenario.node[76].veinsmobility posx ETV
vector 374 RSUExampleScenario.node[76].veinsmobility posy ETV
vector 375 RSUExampleScenario.node[73].veinsmobility acceleration ETV
vector 376 RSUExampleScenario.node[73].veinsmobility co2emission ETV
vector 377 RSUExampleScenario.node[74].veinsmobility acceleration ETV
vector 378 RSUExampleScenario.node[74].veinsmobility co2emission ETV
vector 379 RSUExampleScenario.node[75].veinsmobility speed ETV
vector 380 RSUExampleScenario.node[77].veinsmobility posx ETV
vector 381 RSUExampleScenario.node[77].veinsmobility posy ETV
vector 382 RSUExampleScenario.node[75].veinsmobility acceleration ETV
vector 383 RSUExampleScenario.node[75].veinsmobility co2emission ETV
vector 384 RSUExampleScenario.node[76].veinsmobility speed ETV
vector 385 RSUExampleScenario.node[78].veinsmobility posx ETV
vector 386 RSUExampleScenario.node[78].veinsmobility posy ETV
vector 387 RSUExampleScenario.node[76].veinsmobility acceleration ETV
vector 388 RSUExampleScenario.node[76].veinsmobility co2emission ETV
vector 389 RSUExampleScenario.node[77].veinsmobility speed ETV
vector 390 RSUExampleScenario.node[79].veinsmobility posx ETV
vector 391 RSUExampleScenario.node[79].veinsmobility posy ETV
vector 392 RSUExampleScenario.node[77].veinsmobility acceleration ETV
vector 393 RSUExampleScenario.node[77].veinsmobility co2emission ETV
vector 394 RSUExampleScenario.node[78].veinsmobility speed ETV
vector 395 RSUExampleScenario.node[80].veinsmobility posx ETV
vector 396 RSUExampleScenario.node[80].veinsmobility posy ETV
vector 397 RSUExampleScenario.node[78].veinsmobility acceleration ETV
vector 398 RSUExampleScenario.node[78].veinsmobility co2emission ETV
vector 399 RSUExampleScenario.node[79].veinsmobility speed ETV
vector 400 RSUExampleScenario.node[81].veinsmobility posx ETV
vector 401 RSUExampleScenario.node[81].veinsmobility posy ETV
vector 402 RSUExampleScenario.node[79].veinsmobility acceleration ETV
vector 403 RSUExampleScenario.node[79].veinsmobility co2emission ETV
vector 404 RSUExampleScenario.node[80].veinsmobility speed ETV
171	37	36	2.9359429961033
171	38	37	5.1347387032379
171	39	38	6.6489914203798
171	40	39	8.1843178135927
171	41	40	9.3319316847219
171	42	41	2.9126374592791
171	43	42	0.973
171	44	43	0.973
171	45	44	1.9569917777434
171	46	45	2.7512075303598
171	47	46	0.973
171	48	47	2.9898064718808
171	49	48	0.973
171	50	49	4.3797230979712
171	51	50	1.3672718752813
171	52	51	1.7656307516902
171	53	52	3.3053180460771
171	54	53	0.973
171	55	54	0.973
171	56	55	3.9435692662112
171	57	56	4.566351570875
171	58	57	4.4297612214765
171	59	58	5.9743151604306
171	60	59	6.2101189131146
171	61	60	0.973
171	62	61	3.6984014762014
171	63	62	0.973
171	64	63	1.6367938451818
171	65	64	1.3322469711547
171	66	65	3.7537305064972
171	67	66	1.6023309154576
171	68	67	0.973
171	69	68	0.973
171	70	69	0.973
171	71	70	3.5644104135373
171	72	71	3.9964361858701
171	73	72	7.5697080610601
171	74	73	5.2325019613914
171	76	74	7.2960169598148
171	77	75	2.4354991477097
171	78	76	3.9614210143501
171	79	77	0.973
171	80	78	2.7320983710242
171	81	79	2.9687778781514
171	82	80	0.973
171	83	81	3.5627185564145
171	84	82	0.973
170	37	36	1.8082134905504
170	38	37	2.4662108094199
170	39	38	2.4265917416429
170	40	39	2.4065954509657
170	41	40	2.2872334908694
170	42	41	0.2775768753979
170	43	42	-0.31625088101719
170	44	43	-0.40672119108494
170	45	44	0.0081263016443689
170	46	45	0.25080426868517
170	47	46	-0.33984424762894
170	48	47	0.32674352212343
170	49	48	-0.69824811215513
170	50	49	0.75990366376936
170	51	50	-0.18328092459124
170	52	51	-0.054969588294625
170	53	52	0.41174318986014
170	54	53	-3.8868228848072
170	55	54	-3.1502198632574
170	56	55	1.3123159360141
170	57	56	1.3588820336154
170	58	57	1.1192002462114
170	59	58	1.4846706941957
170	60	59	1.3646575293592
170	61	60	-0.39307912783697
170	62	61	0.5506760226097
170	63	62	-0.2702260796912
170	64	63	-0.091798181948251
170	65	64	-0.18775444116909
170	66	65	0.56688448428176
170	67	66	-0.10896830346901
170	68	67	-2.3243182976127
170	69	68	-3.5445120860386
170	70	69	-3.1840456824666
170	71	70	1.6048296039458
170	72	71	1.472833308153
170	73	72	2.5487087405287
170	74	73	1.3170373062138
170	76	74	1.7587482709903
170	77	75	0.16386240684454
170	78	76	0.6083218034124
170	79	77	-0.37905857525766
170	80	78	0.23656077908818
170	81	79	0.29466892785858
170	82	80	-0.45546488093678
170	83	81	0.47429993678816
170	84	82	-0.82568641931284
169	36	35	1.9540803179145
169	37	36	3.7622938084649
169	38	37	6.2285046178848
169	39	38	8.6550963595277
169	40	39	11.061691810493
169	41	40	13.348925301363
169	42	41	13.626502176761
169	43	42	13.310251295743
169	44	43	12.903530104659
169	45	44	12.911656406303
169	46	45	13.162460674988
169	47	46	12.822616427359
169	48	47	13.149359949483
169	49	48	12.451111837327
169	50	49	13.211015501097
169	51	50	13.027734576506
169	52	51	12.972764988211
169	53	52	13.384508178071
169	54	53	9.4976852932639
169	55	54	6.3474654300065
169	56	55	7.6597813660206
169	57	56	9.018663399636
169	58	57	10.137863645847
169	59	58	11.622534340043
169	60	59	12.987191869402
169	61	60	12.594112741565
169	62	61	13.144788764175
169	63	62	12.874562684484
169	64	63	12.782764502536
169	65	64	12.595010061366
169	66	65	13.161894545648
169	67	66	13.052926242179
169	68	67	10.728607944566
169	69	68	7.1840958585278
169	70	69	4.0000501760612
169	71	70	5.6048797800071
169	72	71	7.0777130881601
169	73	72	9.6264218286888
169	74	73	10.943459134903
169	76	74	12.702207405893
169	77	75	12.866069812737
169	78	76	13.47439161615
169	79	77	13.095333040892
169	80	78	13.33189381998
169	81	79	13.626562747839
169	82	80	13.171097866902
169	83	81	13.64539780369
169	84	82	12.819711384377
161	35	34	1216.5047067734
161	36	35	1216.6789290394
161	37	36	1217.0143683489
161	38	37	1217.5696905524
161	39	38	1218.3413632856
161	40	39	1219.3276037154
161	41	40	1220.4880856126
161	42	41	1221.5793907954
161	43	42	1222.5781329802
161	44	43	1223.5357679836
161	45	44	1224.3858077331
161	46	45	1225.1432610211
161	47	46	1225.8781051048
161	48	47	1226.6316743486
161	49	48	1227.3435435064
161	50	49	1228.0957984845
161	51	50	1228.837508006
161	52	51	1229.5760879376
161	53	52	1230.338109692
161	54	53	1230.8788425089
161	55	54	1231.2402234934
161	56	55	1232.0990984
161	57	56	1236.6507985929
161	58	57	1245.4526994962
161	59	58	1255.7040895511
161	60	59	1267.1591445053
161	61	60	1278.2674930231
161	62	61	1289.9444482777
161	63	62	1301.5078901489
161	64	63	1313.0721367896
161	65	64	1324.4692652336
161	66	65	1336.3793353847
161	67	66	1348.1939323856
161	68	67	1357.9050483569
161	69	68	1364.4078107275
161	70	69	1368.1986132111
161	71	70	1373.1259703072
161	72	71	1374.8994791328
161	73	72	1374.8763403317
161	74	73	1374.8500357993
161	76	74	1374.8195038055
161	77	75	1374.7885779396
161	78	76	1374.756189865
161	79	77	1374.7247129245
161	80	78	1374.6926673685
161	81	79	1374.6599135238
161	82	80	1374.6282544692
161	83	81	1374.5954553511
161	84	82	1374.5646409158
160	35	34	848.19986582991
160	36	35	846.25339716439
160	37	36	842.50575847139
160	38	37	836.30151550317
160	39	38	827.68013300092
160	40	39	816.66152936454
160	41	40	803.36288598828
160	42	41	789.78160288894
160	43	42	776.50921859546
160	44	43	763.64151688036
160	45	44	750.75670383456
160	46	45	737.61697749357
160	47	46	724.81637886647
160	48	47	711.68959777074
160	49	48	699.26156074733
160	50	49	686.07595265522
160	51	50	673.06734525835
160	52	51	660.11362674402
160	53	52	646.74876955675
160	54	53	637.26502866277
160	55	54	630.92688251317
160	56	55	623.32684891162
160	57	56	615.78770490164
160	58	57	610.79382862463
160	59	58	605.31640528055
160	60	59	599.19585137738
160	61	60	593.26054629585
160	62	61	587.22921582376
160	63	62	581.57402377223
160	64	63	576.11212015363
160	65	64	570.75502603494
160	66	65	565.15982712142
160	67	66	559.60907434381
160	68	67	555.04653966498
160	69	68	551.99137289404
160	70	69	550.74708958809
160	71	70	552.16524007422
160	72	71	558.84668074603
160	73	72	568.47242202174
160	74	73	579.41510749393
160	76	74	592.1164169
160	77	75	604.98157712845
160	78	76	618.45501615417
160	79	77	631.54942340269
160	80	78	644.88037470632
160	81	79	658.50597410579
160	82	80	671.67614082402
160	83	81	685.32057394777
160	84	82	698.13937902523
vector 405 RSUExampleScenario.node[82].veinsmobility posx ETV
vector 406 RSUExampleScenario.node[82].veinsmobility posy ETV
vector 407 RSUExampleScenario.node[80].veinsmobility acceleration ETV
vector 408 RSUExampleScenario.node[80].veinsmobility co2emission ETV
vector 409 RSUExampleScenario.node[81].veinsmobility speed ETV
vector 410 RSUExampleScenario.node[83].veinsmobility posx ETV
vector 411 RSUExampleScenario.node[83].veinsmobility posy ETV
vector 412 RSUExampleScenario.node[81].veinsmobility acceleration ETV
vector 413 RSUExampleScenario.node[81].veinsmobility co2emission ETV
vector 414 RSUExampleScenario.node[82].veinsmobility speed ETV
vector 415 RSUExampleScenario.node[84].veinsmobility posx ETV
vector 416 RSUExampleScenario.node[84].veinsmobility posy ETV
vector 417 RSUExampleScenario.node[82].veinsmobility acceleration ETV
vector 418 RSUExampleScenario.node[82].veinsmobility co2emission ETV
vector 419 RSUExampleScenario.node[83].veinsmobility speed ETV
0	2	1	655.22328798186
0	3	2	655.1249318034
0	4	3	654.91244019726
0	5	4	654.57580426925
0	6	5	654.17197574853
0	7	6	653.78915410102
0	8	7	653.62277673821
0	9	8	653.56966307406
0	10	9	653.55846748471
0	11	10	653.55563866416
0	12	11	653.55500651516
0	13	12	653.55490579286
0	14	13	653.55488740412
0	15	14	653.1087630438
0	16	15	650.94582624145
0	17	16	644.83193851746
0	18	17	637.11031823739
0	19	18	628.06860539024
0	20	19	616.54474228057
0	21	20	603.38472787742
0	22	21	594.08390956771
0	23	22	588.97881353301
0	24	23	581.55571980342
0	25	24	572.71989345108
0	26	25	561.47438445707
0	27	26	548.92970407943
0	28	27	535.92962953196
0	29	28	527.01836509037
0	30	29	521.89177654456
0	31	30	514.79750960954
0	32	31	506.71517359603
0	33	32	499.5324955899
0	34	33	495.4854797254
0	35	34	491.02018484976
0	36	35	486.36739363536
0	37	36	481.96292908293
0	38	37	478.28177983624
0	39	38	475.68355388319
0	40	39	474.40047944528
0	41	40	472.34731047345
0	42	41	469.7732776391
0	43	42	466.3336372046
0	44	43	462.07673499038
0	45	44	457.41387627729
0	46	45	452.61838046191
0	47	46	447.68346288747
0	48	47	442.83494212841
0	49	48	438.09743734125
0	50	49	434.91062125065
0	51	50	435.37215455596
0	52	51	442.66741188562
0	53	52	453.75304210398
0	54	53	462.85722100868
0	55	54	464.87512699022
0	56	55	459.77178171021
0	57	56	459.97696108235
0	58	57	460.77853730789
0	59	58	461.47521674214
0	60	59	461.67972581035
0	61	60	458.71711001771
0	62	61	453.80974873905
0	63	62	447.78529040177
0	64	63	441.18000055966
0	65	64	434.6648493515
0	66	65	435.2453560654
0	67	66	440.41586311447
0	68	67	446.77725076478
0	69	68	454.31564360324
0	70	69	462.0510464272
0	71	70	469.97497847106
0	72	71	477.6688154088
0	73	72	485.67338357773
0	74	73	493.2662989825
0	76	74	498.47751383274
0	77	75	501.30702812845
0	78	76	501.75484186963
0	79	77	501.75484186963
0	80	78	501.75484186963
0	81	79	501.75484186963
0	82	80	501.75484186963
0	83	81	501.75484186963
0	84	82	501.75484186963
0	85	83	501.75484186963
0	86	84	501.75484186963
0	88	85	501.75484186963
1	2	1	915.37513983371
1	3	2	913.34398229418
1	4	3	908.95580928196
1	5	4	902.00392670608
1	6	5	893.66444709854
1	7	6	885.75878130494
1	8	7	882.32291545307
1	9	8	881.22606296167
1	10	9	880.99486237964
1	11	10	880.93644428859
1	12	11	880.92338975327
1	13	12	880.9213097327
1	14	13	880.92092998609
1	15	14	878.63078587115
1	16	15	874.44530546106
1	17	16	872.71557773187
1	18	17	873.17716783703
1	19	18	873.91391198915
1	20	19	874.8529087146
1	21	20	875.92522364179
1	22	21	876.68308043458
1	23	22	877.09905799471
1	24	23	876.88904252212
1	25	24	875.66259074448
1	26	25	873.54895428381
1	27	26	870.65802288123
1	28	27	867.66214553611
1	29	28	865.60853767722
1	30	29	864.42711133801
1	31	30	862.55830683303
1	32	31	859.42401414098
1	33	32	851.62584643537
1	34	33	839.1446929137
1	35	34	825.37355073678
1	36	35	811.02416259611
1	37	36	797.33383313685
1	38	37	785.66319669923
1	39	38	777.16208874222
1	40	39	772.96401108824
1	41	40	766.61954567826
1	42	41	758.75859893103
1	43	42	748.76173502986
1	44	43	736.50487372645
1	45	44	723.08055291947
1	46	45	709.29455564512
1	47	46	695.12900183252
1	48	47	681.21144785355
1	49	48	667.61256236303
1	50	49	657.83483465764
1	51	50	649.11344691805
1	52	51	642.0908755864
1	53	52	637.61929267987
1	54	53	631.92500808975
1	55	54	622.68713731516
1	56	55	611.82821545894
1	57	56	603.96246285618
1	58	57	599.89359977155
1	59	58	594.38812622922
1	60	59	586.95369759914
1	61	60	578.25928741807
1	62	61	567.99593385589
1	63	62	555.396261155
1	64	63	541.58182582391
1	65	64	527.95590823533
1	66	65	517.38485060453
1	67	66	508.70247065328
1	68	67	498.50518358333
1	69	68	486.42116040385
1	70	69	474.02133075443
1	71	70	461.31928927922
1	72	71	448.99383993751
1	73	72	436.16995438121
1	74	73	423.99830768463
1	76	74	415.64459074775
1	77	75	411.10880357057
1	78	76	410.3909461531
1	79	77	410.3909461531
1	80	78	410.3909461531
1	81	79	410.3909461531
1	82	80	410.3909461531
1	83	81	410.3909461531
1	84	82	410.3909461531
1	85	83	410.3909461531
1	86	84	410.3909461531
1	88	85	410.3909461531
2	3	2	762.0747954056
2	4	3	761.27865322538
2	5	4	759.42263312706
2	6	5	756.85691352411
2	7	6	753.65390150942
2	8	7	749.5119708803
2	9	8	744.36812482888
2	10	9	740.40805825492
2	11	10	738.3399080031
2	12	11	741.12262963428
2	13	12	748.22734416231
2	14	13	755.69200485467
2	15	14	765.40218226708
2	16	15	777.56564720244
2	17	16	790.77739439626
2	18	17	804.93803205015
2	19	18	817.2646757263
2	20	19	825.48527365778
2	21	20	830.51959167798
2	22	21	837.25480480749
2	23	22	840.70575106006
2	24	23	841.8794298978
2	25	24	843.21189995069
2	26	25	844.67803494056
2	27	26	846.16787237612
2	28	27	847.77979593566
2	29	28	849.51962216983
2	30	29	851.44002146647
2	31	30	853.48793684435
2	32	31	855.7524115399
2	33	32	858.22401129817
2	34	33	860.86322790395
2	35	34	863.3898820492
2	36	35	868.5146070211
2	37	36	870.26210248719
2	38	37	871.68250379369
2	39	38	872.98202378907
2	40	39	874.26458163403
2	41	40	875.57042541042
2	42	41	876.90131020512
2	43	42	878.037616275
2	44	43	878.94443049544
2	45	44	878.95538679847
2	46	45	878.66604898223
2	47	46	878.48841872216
2	48	47	878.09521481647
2	49	48	871.32570843493
2	50	49	871.14521891067
2	51	50	869.36843671239
2	52	51	878.07355071634
2	53	52	894.40344893684
2	54	53	905.29268474121
2	55	54	911.34018978687
2	56	55	910.47402154653
2	57	56	908.75260290869
2	58	57	911.89248059017
2	59	58	915.97182522709
2	60	59	920.22613076462
2	61	60	923.9957568586
2	62	61	930.54658965337
2	63	62	938.05760296474
2	64	63	946.98171166526
2	65	64	954.92215966127
2	66	65	961.46225336406
2	67	66	969.40362134724
2	68	67	978.79175695985
2	69	68	987.28808218796
2	70	69	996.47687472752
2	71	70	1006.1627146044
2	72	71	1016.0332790868
2	73	72	1026.1174797823
2	74	73	1036.1171329615
2	76	74	1044.6592373839
2	77	75	1051.5911467602
2	78	76	1056.9092235901
2	79	77	1060.7288584841
2	80	78	1068.1180429643
2	81	79	1077.8098003251
2	82	80	1089.7146739081
2	83	81	1103.5072226142
2	84	82	1116.9477815154
2	85	83	1130.1893113455
2	86	84	1143.5187763575
2	88	85	1157.8923516945
3	3	2	931.82282842785
3	4	3	933.53052184726
3	5	4	937.51161138998
3	6	5	943.01497823934
3	7	6	949.88531205115
3	8	7	958.76958907441
3	9	8	969.87847674486
3	10	9	978.50852426642
3	11	10	983.39074330983
3	12	11	990.12106601336
3	13	12	993.55457394244
3	14	13	994.65544507589
3	15	14	996.40357525843
3	16	15	998.78585915426
3	17	16	1001.2195607102
3	18	17	1003.6139866563
3	19	18	1006.2841511501
3	20	19	1008.1598251859
3	21	20	1009.9219974145
3	22	21	1013.5196116619
3	23	22	1021.4082977259
3	24	23	1031.5986350561
3	25	24	1043.1676596348
3	26	25	1057.1345733297
3	27	26	1073.3321946188
3	28	27	1091.3971053885
3	29	28	1110.8954280534
3	30	29	1132.4174423763
3	31	30	1155.3685360223
3	32	31	1180.7466211512
3	33	32	1208.4459675794
3	34	33	1237.390033675
3	35	34	1265.1957145795
3	36	35	1292.9144878552
3	37	36	1321.1070910947
3	38	37	1349.9028350075
3	39	38	1378.2754185179
3	40	39	1406.277665265
3	41	40	1434.7883166817
3	42	41	1463.8456918009
3	43	42	1488.6548051474
3	44	43	1508.9682903497
3	45	44	1524.79653178
3	46	45	1536.4515480396
3	47	46	1543.6067951357
3	48	47	1552.8889768685
3	49	48	1558.3209313597
3	50	49	1569.4644711199
3	51	50	1581.6197955987
3	52	51	1591.6930837313
3	53	52	1594.0872254844
3	54	53	1588.8945210393
3	55	54	1577.179540325
3	56	55	1563.7419878982
3	57	56	1556.1295883652
3	58	57	1547.8633954558
3	59	58	1538.3857834568
3	60	59	1526.4158266764
3	61	60	1512.5453095178
3	62	61	1496.9154156604
3	63	62	1479.008276033
3	64	63	1459.977632539
3	65	64	1437.8633669759
3	66	65	1413.3947309719
3	67	66	1387.3342353816
3	68	67	1360.3890305785
3	69	68	1333.5646051601
3	70	69	1306.731721174
3	71	70	1279.8640086604
3	72	71	1253.1516070612
3	73	72	1226.5305097862
3	74	73	1200.268407004
3	76	74	1178.2679716492
3	77	75	1160.4723354766
3	78	76	1146.8197391622
3	79	77	1137.4138273388
3	80	78	1130.8797803096
3	81	79	1129.6817564935
3	82	80	1128.6484027643
3	83	81	1127.461861334
3	84	82	1126.3056007819
3	85	83	1125.1630294701
3	86	84	1124.0104817435
3	88	85	1122.767910972
4	3	2	2.0332066265866
4	4	3	4.3925999206724
4	5	4	6.9588958243839
4	6	5	8.347892701719
4	7	6	7.9136412445973
4	8	7	3.4393320469211
4	9	8	1.097959026075
4	10	9	0.23143382346863
4	11	10	0.058477024814645
4	12	11	0.013067705093113
4	13	12	0.0020821189528265
4	14	13	0.00038012970678296
4	15	14	2.3343369028435
4	16	15	4.8132961329675
4	17	16	6.5097058244187
4	18	17	7.7453883113747
4	19	18	9.0724779875658
4	20	19	11.563073961943
4	21	20	13.204792389122
4	22	21	9.3324650768773
4	23	22	5.1224665262271
4	24	23	7.4366961694556
4	25	24	8.9201401155908
4	26	25	11.442586651514
4	27	26	12.876473901887
4	28	27	13.343912765726
4	29	28	9.1469579583274
4	30	29	5.2621813891347
4	31	30	7.3392254146406
4	32	31	8.6912029225503
4	33	32	10.908438978566
4	34	33	13.119769688918
4	35	34	14.475762468662
4	36	35	15.083595218642
4	37	36	14.381283498315
4	38	37	12.239310637401
4	39	38	8.8902431803948
4	40	39	4.3902431803948
4	41	40	6.669062803798
4	42	41	8.2721511626808
4	43	42	10.571277201614
4	44	43	12.973416271918
4	45	44	14.209860503387
4	46	45	14.596041335577
4	47	46	15.001042152585
4	48	47	14.738415219162
4	49	48	14.400951573816
4	50	49	10.294442473356
4	51	50	8.9858606047617
4	52	51	10.343608951852
4	53	52	11.953977534156
4	54	53	10.904417082014
4	55	54	9.7515425175185
4	56	55	12.107244709389
4	57	56	8.1163078966139
4	58	57	4.1438698073904
4	59	58	5.5511876064873
4	60	59	7.4476767294862
4	61	60	9.2519049384453
4	62	61	11.375737816054
4	63	62	13.965276782593
4	64	63	15.311700357117
4	65	64	15.102750290318
4	66	65	11.091099522397
4	67	66	10.110417486349
4	68	67	12.017302610231
4	69	68	14.240784073313
4	70	69	14.612955797969
4	71	70	14.96910650138
4	72	71	14.530219393892
4	73	72	15.118612013168
4	74	73	14.346102097717
4	76	74	9.8461020977165
4	77	75	5.3461020977165
4	78	76	0.84610209771653
4	79	77	0
4	80	78	0
4	81	79	0
4	82	80	0
4	83	81	0
4	84	82	0
4	85	83	0
4	86	84	0
4	88	85	0
7	4	3	2.3593932940857
7	5	4	2.5662959037116
7	6	5	1.388996877335
7	7	6	-0.43425145712169
7	8	7	-4.4743091976761
7	9	8	-2.3413730208462
7	10	9	-0.86652520260635
7	11	10	-0.17295679865398
7	12	11	-0.045409319721532
7	13	12	-0.010985586140286
7	14	13	-0.0017019892460435
7	15	14	2.3339567731367
7	16	15	2.478959230124
7	17	16	1.6964096914511
7	18	17	1.2356824869561
7	19	18	1.3270896761911
7	20	19	2.4905959743774
7	21	20	1.6417184271791
7	22	21	-3.872327312245
7	23	22	-4.2099985506502
7	24	23	2.3142296432285
7	25	24	1.4834439461352
7	26	25	2.5224465359235
7	27	26	1.4338872503722
7	28	27	0.46743886383945
7	29	28	-4.1969548073985
7	30	29	-3.8847765691928
7	31	30	2.0770440255059
7	32	31	1.3519775079098
7	33	32	2.2172360560158
7	34	33	2.2113307103515
7	35	34	1.3559927797448
7	36	35	0.60783274997957
7	37	36	-0.70231172032654
7	38	37	-2.1419728609141
7	39	38	-3.3490674570066
7	40	39	-4.5
7	41	40	2.2788196234033
7	42	41	1.6030883588828
7	43	42	2.2991260389332
7	44	43	2.4021390703041
7	45	44	1.2364442314689
7	46	45	0.38618083219044
7	47	46	0.40500081700739
7	48	47	-0.26262693342287
7	49	48	-0.33746364534639
7	50	49	-4.1065091004595
7	51	50	-1.3085818685944
7	52	51	1.3577483470905
7	53	52	1.6103685823036
7	54	53	-1.0495604521414
7	55	54	-1.1528745644959
7	56	55	2.3557021918707
7	57	56	-3.9909368127752
7	58	57	-3.9724380892236
7	59	58	1.4073177990969
7	60	59	1.8964891229989
7	61	60	1.8042282089591
7	62	61	2.1238328776089
7	63	62	2.5895389665384
7	64	63	1.3464235745245
7	65	64	-0.2089500667993
7	66	65	-4.0116507679206
7	67	66	-0.9806820360478
7	68	67	1.9068851238815
7	69	68	2.2234814630821
7	70	69	0.37217172465573
7	71	70	0.35615070341155
7	72	71	-0.4388871074887
7	73	72	0.58839261927642
7	74	73	-0.77250991545152
7	76	74	-4.5
7	77	75	-4.5
7	78	76	-4.5
7	79	77	-0.84610209771653
7	80	78	0
7	81	79	0
7	82	80	0
7	83	81	0
7	84	82	0
7	85	83	0
7	86	84	0
7	88	85	0
8	4	3	3.8274214472374
8	5	4	5.7807473689515
8	6	5	4.3608854892457
8	7	6	0.973
8	8	7	0.973
8	9	8	0.973
8	10	9	0.973
8	11	10	0.973
8	12	11	1.1104873779606
8	13	12	1.1100949289545
8	14	13	1.1100181815357
8	15	14	2.5368096644726
8	16	15	4.2280984399334
8	17	16	4.1109054342109
8	18	17	3.8331343456185
8	19	18	4.5182787117482
8	20	19	8.7511697195439
8	21	20	7.1842299421656
8	22	21	0.973
8	23	22	0.973
8	24	23	5.6544037060971
8	25	24	4.7949141353553
8	26	25	8.7564517699107
8	27	26	6.3780690538208
8	28	27	3.4764328455621
8	29	28	0.973
8	30	29	0.973
8	31	30	5.1743421381912
8	32	31	4.4217359726572
8	33	32	7.585101303574
8	34	33	8.9434435329106
8	35	34	6.8191255146479
8	36	35	4.3642141613758
8	37	36	0.973
8	38	37	0.973
8	39	38	0.973
8	40	39	0.973
8	41	40	5.1217361099941
8	42	41	4.7572381131639
8	43	42	7.5865235380461
8	44	43	9.4480634413106
8	45	44	6.2948401268585
8	46	45	3.4598223245177
8	47	46	3.6096736551454
8	48	47	1.183891500784
8	49	48	0.973
8	50	49	0.973
8	51	50	0.973
8	52	51	5.0958165215299
8	53	52	6.4837856410994
8	54	53	0.973
8	55	54	0.973
8	56	55	8.7315785988646
8	57	56	0.973
8	58	57	0.973
8	59	58	3.2763526728763
8	60	59	4.9114278145996
8	61	60	5.6523746659025
8	62	61	7.6173569841964
8	63	62	10.750725596097
8	64	63	7.1487224102074
8	65	64	1.3962577692098
8	66	65	0.973
8	67	66	0.973
8	68	67	7.3727002396012
8	69	68	9.6948211800999
8	70	69	3.4138761414943
8	71	70	3.4267991275221
8	72	71	0.973
8	73	72	4.3024141558014
8	74	73	0.973
8	76	74	0.973
8	77	75	0.973
8	78	76	0.973
8	79	77	0.973
8	80	78	0.973
8	81	79	0.973
8	82	80	0.973
8	83	81	0.973
8	84	82	0.973
8	85	83	0.973
8	86	84	0.973
8	88	85	0.973
9	4	3	1.8839627243113
9	5	4	4.3920203798916
9	6	5	6.0714282110566
9	7	6	7.5794944560621
9	8	7	9.8013182893861
9	9	8	12.243591136346
9	10	9	9.4993304280428
9	11	10	5.3376160841182
9	12	11	7.6473376816584
9	13	12	7.9878223131174
9	14	13	7.5550073045768
9	15	14	9.8664161817865
9	16	15	12.394682024815
9	17	16	13.430324005481
9	18	17	14.361864305899
9	19	18	12.615977927646
9	20	19	8.4318832828816
9	21	20	5.3478878856905
9	22	21	7.6756596103579
9	23	22	8.9531122319911
9	24	23	10.256771981418
9	25	24	11.644447411857
[...]
335	73	72	133.04355993705
335	74	73	139.4134822997
335	76	74	147.48689620474
335	77	75	156.86718705222
335	78	76	167.68154858357
335	79	77	181.05334914543
335	80	78	196.75985522086
335	81	79	214.36622364412
335	82	80	233.52012126743
335	83	81	255.22849234751
335	84	82	279.09682239353
335	85	83	305.24995364897
335	86	84	333.12826065006
335	88	85	360.18276602555
336	70	69	1494.7505537435
336	71	70	1494.9111597769
336	72	71	1495.239767021
336	73	72	1495.7238978239
336	74	73	1496.4156047657
336	76	74	1497.2922930712
336	77	75	1498.3108945433
336	78	76	1499.4852210918
336	79	77	1500.9372587693
336	80	78	1502.6428210455
336	81	79	1504.5546885009
336	82	80	1506.634601441
336	83	81	1508.9919034796
336	84	82	1511.5888557396
336	85	83	1514.4859043786
336	86	84	1517.5740551077
336	88	85	1520.5709512427
337	70	69	1.796531952708
337	71	70	1.5166591727175
337	72	71	2.0644908756716
337	73	72	2.0452050217893
337	74	73	1.7353750438378
337	76	74	-0.97774037425406
337	77	75	-0.31498050650116
337	78	76	0.14549341881648
337	79	77	1.1503237816272
337	80	78	-0.39042456967291
337	81	79	-0.8782087006839
337	82	80	0.72388369746041
337	83	81	-0.72709739850834
337	84	82	0.38593033405486
337	85	83	-0.092393841035664
337	86	84	0.59525069543161
337	88	85	0.0088530359324057
338	70	69	3.0946407008367
338	71	70	3.4549291682907
338	72	71	5.3502752550539
338	73	72	6.4644980845618
338	74	73	6.6011228198547
338	76	74	0.973
338	77	75	0.973
338	78	76	2.071849496039
338	79	77	4.9846212784766
338	80	78	0.973
338	81	79	0.973
338	82	80	3.6649620712865
338	83	81	0.973
338	84	82	2.7155243858504
338	85	83	1.4895161576355
338	86	84	3.3625222107888
338	88	85	1.7956224887927
339	70	69	1.7533990059979
339	71	70	3.512629800709
339	72	71	5.4141052964609
339	73	72	7.6893244626932
339	74	73	10.13576510991
339	76	74	11.941291955509
339	77	75	13.278348572535
339	78	76	12.773351024074
339	79	77	13.22733876112
339	80	78	13.644525831571
339	81	79	13.118194457801
339	82	80	11.912757431146
339	83	81	9.1160622537452
339	84	82	4.6160622537452
339	85	83	6.8392730036135
339	86	84	8.7413474809694
339	88	85	10.570779754579
340	71	70	1024.5548439822
340	72	71	1027.0000529189
340	73	72	1031.8109790072
340	74	73	1038.9317517709
340	76	74	1047.8508833976
340	77	75	1052.2833879813
340	78	76	1057.0305896896
340	79	77	1057.0155758624
340	80	78	1054.2179724059
340	81	79	1050.684525881
340	82	80	1046.6138984029
340	83	81	1042.0225885965
340	84	82	1036.5952384898
340	85	83	1030.4955362206
340	86	84	1023.9609389334
340	88	85	1016.8318197691
341	71	70	1133.9120059435
341	72	71	1133.7254266625
341	73	72	1133.3583336436
341	74	73	1132.8149900288
341	76	74	1132.1344243965
341	77	75	1131.796206461
341	78	76	1132.7098011275
341	79	77	1137.7362554741
341	80	78	1144.9149627738
341	81	79	1153.9818583349
341	82	80	1164.4271711341
341	83	81	1176.208565365
341	84	82	1190.1352559896
341	85	83	1205.9372519145
341	86	84	1223.1742110727
341	88	85	1241.9991449513
342	71	70	1.759230794711
342	72	71	1.9014754957519
342	73	72	2.2752191662323
342	74	73	2.4464406472165
342	76	74	1.8055268455995
342	77	75	1.3370566170255
342	78	76	-0.50499754846096
342	79	77	0.45398773704655
342	80	78	0.41718707045075
342	81	79	-0.52633137376979
342	82	80	-1.2054370266552
342	83	81	-2.7966951774009
342	84	82	-4.5
342	85	83	2.2232107498683
342	86	84	1.9020744773559
342	88	85	1.8294322736096
343	71	70	2.7727189285012
343	72	71	3.8668811158523
343	73	72	5.739202360721
343	74	73	7.6711100600778
343	76	74	7.0393850609503
343	77	75	6.2455126428904
343	78	76	0.973
343	79	77	3.4090951192503
343	80	78	3.3747258347818
343	81	79	0.973
343	82	80	0.973
343	83	81	0.973
343	84	82	0.973
343	85	83	5.1339196019056
343	86	84	5.6004190647903
343	88	85	6.3896364333769
344	71	70	1.4877580618253
344	72	71	3.0440206144238
344	73	72	4.4846976775676
344	74	73	6.4075586530613
344	76	74	8.1211151693715
344	77	75	9.4357137130108
344	78	76	10.878257514397
344	79	77	13.45080701448
344	80	78	15.799306990486
344	81	79	17.710394556937
344	82	80	19.267067237082
344	83	81	21.836633641529
344	84	82	24.009910784173
344	85	83	26.313880183268
344	86	84	28.049659636321
344	88	85	27.220794554784
345	72	71	766.6321382678
345	73	72	764.4759116074
345	74	73	760.7965173907
345	76	74	754.55907880182
345	77	75	746.36652268721
345	78	76	736.60399214254
345	79	77	724.90333482736
345	80	78	711.58313671849
345	81	79	698.32114526475
345	82	80	684.1939849548
345	83	81	670.97663424004
345	84	82	658.84025577182
345	85	83	651.53992899893
345	86	84	652.05221349694
345	88	85	655.87438920162
346	72	71	562.78138524801
346	73	72	563.17301683822
346	74	73	563.8412986263
346	76	74	564.97419343661
346	77	75	566.46219274484
346	78	76	568.23534369967
346	79	77	570.36051315195
346	80	78	572.77983690076
346	81	79	575.18858867895
346	82	80	577.75447952845
346	83	81	580.1551232891
346	84	82	582.35943199477
346	85	83	581.7005091927
346	86	84	574.10298940944
346	88	85	567.38576235264
347	72	71	1.5562625525985
347	73	72	1.4406770631438
347	74	73	1.9228609754937
347	76	74	1.7135565163102
347	77	75	1.3145985436393
347	78	76	1.4425438013859
347	79	77	2.5725495000836
347	80	78	2.3484999760054
347	81	79	1.9110875664512
347	82	80	1.5566726801451
347	83	81	2.569566404447
347	84	82	2.1732771426439
347	85	83	2.3039693990955
347	86	84	1.7357794530527
347	88	85	-0.82886508153751
348	72	71	2.4011373659921
348	73	72	2.8917755162962
348	74	73	4.4127266222952
348	76	74	4.9049950037872
348	77	75	4.6321914229069
348	78	76	5.5355454622424
348	79	77	10.322968926764
348	80	78	11.178707724035
348	81	79	10.634428551023
348	82	80	9.9283631293014
348	83	81	16.64797275986
348	84	82	16.122292315516
348	85	83	18.673505518978
348	86	84	16.235639215709
348	88	85	0.973
349	72	71	2.4524971899344
349	73	72	4.825265659322
349	74	73	7.1419971236261
349	76	74	8.9457162217628
349	77	75	4.4457162217628
349	78	76	4.9835685591063
349	79	77	5.3505114071386
349	80	78	7.7043880969601
349	81	79	9.7308441925643
349	82	80	11.210199864543
349	83	81	12.64411957309
349	84	82	14.946511258682
349	85	83	16.94034614324
349	86	84	18.435827229716
349	88	85	20.131516216564
350	73	72	815.97873239437
350	74	73	816.20564621232
350	76	74	816.67420944049
350	77	75	817.36651013179
350	78	76	818.25110677759
350	79	77	819.30095048496
350	80	78	817.24033412983
350	81	79	812.20371794862
350	82	80	806.42493838452
350	83	81	799.50119929088
350	84	82	789.60392879841
350	85	83	779.59424378177
350	86	84	772.38018144584
350	88	85	766.96056448942
351	73	72	795.11099133261
351	74	73	797.24689037285
351	76	74	801.65739193853
351	77	75	808.17389408665
351	78	76	816.50044353986
351	79	77	826.38243392381
351	80	78	832.33801727416
351	81	79	839.97200666305
351	82	80	848.73089165365
351	83	81	856.19775288783
351	84	82	859.10537271061
351	85	83	860.87318382058
351	86	84	862.13596469073
351	88	85	860.22630683368
352	73	72	2.3727684693877
352	74	73	2.316731464304
352	76	74	1.8037190981368
352	77	75	-4.5
352	78	76	0.53785233734343
352	79	77	0.36694284803234
352	80	78	2.3538766898215
352	81	79	2.0264560956042
352	82	80	1.4793556719786
352	83	81	1.4339197085472
352	84	82	2.302391685592
352	85	83	1.9938348845579
352	86	84	1.4954810864758
352	88	85	1.6956889868481
353	73	72	4.112415767465
353	74	73	5.4757911134335
353	76	74	5.4963440893276
353	77	75	0.973
353	78	76	2.0078234206234
353	79	77	1.8554217263555
353	80	78	5.8944841045686
353	81	79	6.4168444557512
353	82	80	5.7776339615283
353	83	81	6.2761800031174
353	84	82	10.432941275623
353	85	83	10.516375651895
353	86	84	9.2226608883164
353	88	85	11.061817118548
354	73	72	2.1915223166579
354	74	73	3.7396228725789
354	76	74	6.3395403263392
354	77	75	8.3266615172615
354	78	76	9.9223351369612
354	79	77	11.892187447986
354	80	78	13.538238791889
354	81	79	13.479079341702
354	82	80	14.358410300221
354	83	81	13.433707870566
354	84	82	12.33504099778
354	85	83	7.8350409977797
354	86	84	8.1115643466085
354	88	85	7.740202389607
355	74	73	1.548100555921
355	76	74	2.5999174537603
355	77	75	1.9871211909223
355	78	76	1.5956736196997
355	79	77	1.9698523110244
355	80	78	1.6460513439029
355	81	79	-0.059159450186888
355	82	80	0.87933095851913
355	83	81	-0.92470242965501
355	84	82	-1.0986668727861
355	85	83	-4.5
355	86	84	0.27652334882878
355	88	85	-0.3713619570015
356	74	73	2.6904548713507
356	76	74	5.4115860004132
356	77	75	5.5526164689554
356	78	76	5.494603452378
356	79	77	7.4846763742198
356	80	78	7.3629054866666
356	81	79	1.79428545075
356	82	80	5.118924949986
356	83	81	0.973
356	84	82	0.973
356	85	83	0.973
356	86	84	2.0911782644635
356	88	85	0.973
357	74	73	2.1481174765853
357	76	74	4.4357318933588
357	77	75	6.5537798776524
357	78	76	8.3741815802874
357	79	77	9.9385204297304
357	80	78	6.5515069756027
357	81	79	9.1446377959404
357	82	80	10.492132835819
357	83	81	10.389327479729
357	84	82	10.358941915531
357	85	83	10.16672518548
357	86	84	7.3249822772238
357	88	85	6.08420593679
358	76	74	696.22696784074
358	77	75	695.03865950786
358	78	76	693.11484851294
358	79	77	690.15074104759
358	80	78	686.15236741206
358	81	79	681.24898380773
358	82	80	675.63968823488
358	83	81	670.37510328314
358	84	82	667.17789964839
358	85	83	664.36777388907
358	86	84	665.81799879013
358	88	85	671.24953499252
359	76	74	413.91986217458
359	77	75	416.21725828481
359	78	76	419.93662620831
359	79	77	425.66723397466
359	80	78	433.39742300334
359	81	79	442.87729797172
359	82	80	453.72193607923
359	83	81	463.9001336526
359	84	82	470.08139401311
359	85	83	476.58351767483
359	86	84	484.5309460312
359	88	85	489.79310247905
360	76	74	2.2876144167734
360	77	75	2.1180479842937
360	78	76	1.820401702635
360	79	77	1.564338849443
360	80	78	-3.3870134541277
360	81	79	2.5931308203377
360	82	80	1.3474950398784
360	83	81	-0.10280535608978
360	84	82	-0.030385564197786
360	85	83	-0.19221673005129
360	86	84	-2.8417429082561
360	88	85	-1.2407763404338
361	76	74	3.7775280438128
361	77	75	4.7975329080313
361	78	76	5.2421147603583
361	79	77	5.4269982159725
361	80	78	0.973
361	81	79	7.3366721772752
361	82	80	5.130121759125
361	83	81	1.4573683312514
361	84	82	1.6365454536912
361	85	83	1.226553997731
361	86	84	0.973
361	88	85	0.973
362	77	75	828.30691300281
362	78	76	828.13093516063
362	79	77	827.83295583364
362	80	78	827.35975622753
362	81	79	826.7233631226
362	82	80	825.92282573003
362	83	81	824.97163789183
362	84	82	823.78826215707
362	85	83	822.580351236
362	86	84	821.33889308934
362	88	85	820.05421480663
363	77	75	1490.1113096352
363	78	76	1488.1813548386
363	79	77	1484.913405736
363	80	78	1479.7238100558
363	81	79	1472.744465894
363	82	80	1463.9649459184
363	83	81	1453.533237539
363	84	82	1440.5551168435
363	85	83	1427.3079179508
363	86	84	1413.6928055293
363	88	85	1399.6036964507
364	77	75	728.83722563037
364	78	76	728.47621794032
364	79	77	727.57341975574
364	80	78	726.32782560132
364	81	79	724.48250197779
364	82	80	722.09736723842
364	83	81	719.2006158844
364	84	82	716.4968253987
364	85	83	713.57009705446
364	86	84	710.12969922669
364	88	85	706.70199149288
365	77	75	726.45369966267
365	78	76	725.01687210755
365	79	77	721.42369294801
365	80	78	716.46616973484
365	81	79	709.12169507829
365	82	80	699.62874683741
365	83	81	688.09954045071
365	84	82	677.33832737911
365	85	83	665.68981116395
365	86	84	654.6505778456
365	88	85	644.13364101978
366	77	75	2.5865511378972
366	78	76	4.1874952655984
366	79	77	6.4518739162479
366	80	78	8.7031266133301
366	81	79	10.673031645431
366	82	80	12.209566696899
366	83	81	11.459246578298
366	84	82	6.9592465782981
366	85	83	7.1020573168497
366	86	84	8.3625975555245
366	88	85	7.5817726671899
367	78	76	655.99469597305
367	79	77	655.39821760921
367	80	78	653.88619335447
367	81	79	651.50168872563
367	82	80	648.47016506931
367	83	81	644.63279098938
367	84	82	639.92825725004
367	85	83	635.16561146649
367	86	84	632.21944566829
367	88	85	628.96499919202
368	78	76	492.06915289588
368	79	77	493.25911975706
368	80	78	496.27558919759
368	81	79	501.03264605113
368	82	80	507.08049775646
368	83	81	514.73601095854
368	84	82	524.12149681445
368	85	83	533.62291547036
368	86	84	539.50047931841
368	88	85	547.41463664067
369	78	76	1.6009441277012
369	79	77	2.2643786506495
369	80	78	2.2512526970822
369	81	79	1.9699050321011
369	82	80	1.5365350514683
369	83	81	-0.75032011860138
369	84	82	-4.5
369	85	83	0.14281073855168
369	86	84	1.2605402386747
369	88	85	-0.78082488833461
370	78	76	2.9344389633398
370	79	77	4.966934618335
370	80	78	6.3126340863096
370	81	79	6.8041725705464
370	82	80	6.3883933818374
370	83	81	0.973
370	84	82	0.973
370	85	83	1.7301296744803
370	86	84	4.107912056906
370	88	85	0.973
371	78	76	1.9380526780849
371	79	77	3.2816610633861
371	80	78	5.211370662041
371	81	79	7.008628734597
371	82	80	8.8163578914013
371	83	81	10.475478698825
371	84	82	13.032575485506
371	85	83	13.302782705651
371	86	84	13.672239959884
371	88	85	14.148225455607
372	78	76	1.4814750483027
372	79	77	3.7048323926749
372	80	78	5.1115716116969
372	81	79	7.5726943763904
372	82	80	9.7879289017525
372	83	81	11.887461044064
372	84	82	11.095603364596
372	85	83	12.010478265753
372	86	84	11.567024377554
372	88	85	11.06134601739
373	79	77	647.97742532006
373	80	78	650.46212562024
373	81	79	655.12180925648
373	82	80	661.19382758012
373	83	81	669.51916070621
373	84	82	679.63992542942
373	85	83	691.78704145644
373	86	84	706.42188160247
373	88	85	721.15184149136
374	79	77	1204.0316216216
374	80	78	1203.8565894967
374	81	79	1203.5283429357
374	82	80	1203.1006059286
374	83	81	1202.514136507
374	84	82	1201.8011897763
374	85	83	1200.9454988384
374	86	84	1199.9145627657
374	88	85	1198.8769260818
375	79	77	1.3436083853012
375	80	78	1.9297095986549
375	81	79	1.797258072556
375	82	80	1.8077291568043
375	83	81	1.6591208074242
375	84	82	2.5570967866806
375	85	83	0.2702072201453
375	86	84	0.36945725423284
375	88	85	0.47598549572285
376	79	77	2.3342055339944
376	80	78	3.7980712352098
376	81	79	4.5156113376464
376	82	80	5.439564961351
376	83	81	5.9101301173516
376	84	82	9.9746365875204
376	85	83	2.8354730654729
376	86	84	3.2230118143384
376	88	85	3.6771133902131
377	79	77	2.2233573443722
377	80	78	1.406739219022
377	81	79	2.4611227646936
377	82	80	2.215234525362
377	83	81	2.0995321423116
377	84	82	-0.79185767946765
377	85	83	0.91487490115687
377	86	84	-0.44345388819929
377	88	85	-0.50567836016416
378	79	77	3.2785758207788
378	80	78	3.1018661966258
378	81	79	6.0070200193647
378	82	80	6.8942915482493
378	83	81	7.8535363239602
378	84	82	0.973
378	85	83	4.497563217669
378	86	84	0.973
378	88	85	0.973
379	79	77	1.3311312716687
379	80	78	3.3743097672006
379	81	79	5.3213810782647
379	82	80	6.7653014499927
379	83	81	8.5636779950699
379	84	82	10.498875330202
379	85	83	10.628561105943
379	86	84	6.5748125385636
379	88	85	8.5968248870599
380	80	78	1133.0254864996
380	81	79	1130.7296017184
380	82	80	1125.8395864348
380	83	81	1118.6459242532
380	84	82	1109.3424803932
380	85	83	1098.0297672218
380	86	84	1084.7655366281
380	88	85	1069.2236647531
381	80	78	1823.5689055919
381	81	79	1823.4647609793
381	82	80	1823.2429429024
381	83	81	1822.9166281122
381	84	82	1822.4946106119
381	85	83	1821.9814497862
381	86	84	1821.3797653431
381	88	85	1820.6747002395
382	80	78	2.0431784955319
382	81	79	1.9470713110641
382	82	80	1.443920371728
382	83	81	1.7983765450772
382	84	82	1.9351973351324
382	85	83	0.12968577574038
382	86	84	-4.0537485673791
382	88	85	2.0220123484964
383	80	78	2.9378563132183
383	81	79	3.877650765136
383	82	80	3.8191847649909
383	83	81	5.2927015669039
383	84	82	6.6198638172304
383	85	83	2.0658262160308
383	86	84	0.973
383	88	85	5.7726794622601
384	80	78	2.4908417782513
384	81	79	4.6712010594318
384	82	80	6.0870266396785
384	83	81	8.3459110005293
384	84	82	10.145780397975
384	85	83	12.177140270453
384	86	84	14.671013341565
384	88	85	14.766368193588
385	81	79	983.05406134024
385	82	80	981.90513264029
385	83	81	978.79883429112
385	84	82	974.22111139658
385	85	83	967.49588300323
385	86	84	959.43257555434
385	88	85	949.49271259155
386	81	79	437.38043049958
386	82	80	438.13913134523
386	83	81	440.1903910835
386	84	82	443.21331342096
386	85	83	447.65435181562
386	86	84	452.8789375715
386	88	85	459.04926028272
387	81	79	2.1803592811804
387	82	80	1.4158255802467
387	83	81	2.2588843608508
387	84	82	1.7998693974456
387	85	83	2.0313598724781
387	86	84	2.4938730711117
387	88	85	0.095354852022963
388	81	79	3.7993146408226
388	82	80	3.5014514092045
388	83	81	6.109749105466
388	84	82	6.0968308144511
388	85	83	7.8256432152554
388	86	84	10.927063301853
388	88	85	2.4591045759536
389	81	79	2.2983573178062
389	82	80	4.8952815503813
389	83	81	7.2014093442587
389	84	82	9.3134631369729
389	85	83	11.32489631637
389	86	84	13.278515411355
389	88	85	15.558612467768
390	82	80	412.34099598035
390	83	81	413.07362799181
390	84	82	414.43518392563
390	85	83	416.53115304268
390	86	84	419.18590934809
390	88	85	422.50961875479
391	82	80	813.10913354176
391	83	81	814.65741644014
391	84	82	817.53481428043
391	85	83	821.96425919778
391	86	84	827.57459798001
391	88	85	834.59864600554
392	82	80	2.5969242325751
392	83	81	2.3061277938774
392	84	82	2.1120537927141
392	85	83	2.0114331793971
392	86	84	1.9536190949846
392	88	85	2.2800970564131
393	82	80	4.4207400415788
393	83	81	5.4942726994243
393	84	82	6.374509202366
393	85	83	7.2802937711042
393	86	84	8.21865788628
393	88	85	10.757982486951
394	82	80	1.376790606766
394	83	81	3.7223566520261
394	84	82	5.485602267459
394	85	83	8.0590129576623
394	86	84	9.6085030483082
394	88	85	11.698961018166
395	83	81	106.81450395683
395	84	82	108.31132014278
395	85	83	112.31589535797
395	86	84	118.40070736039
395	88	85	126.4560676066
396	83	81	608.13677572552
396	84	82	608.25358167811
396	85	83	608.56608379236
396	86	84	609.04091982699
396	88	85	609.66953009716
397	83	81	2.3455660452601
397	84	82	1.763245615433
397	85	83	2.5734106902033
397	86	84	1.5494900906458
397	88	85	2.0904579698574
398	83	81	3.398510129497
398	84	82	3.720938462736
398	85	83	6.5452543830479
398	86	84	5.2435380183475
398	88	85	7.7162145802257
399	83	81	1.7131729228888
399	84	82	3.1838367998134
399	85	83	4.9011747812852
399	86	84	6.2078322379151
399	88	85	7.7720995943528
400	84	82	1270.5176130531
400	85	83	1270.3056401194
400	86	84	1269.9485158535
400	88	85	1269.3719352894
401	84	82	576.10184032034
401	85	83	573.82313128362
401	86	84	569.98404542525
401	88	85	563.78580436108
402	84	82	1.4706638769247
402	85	83	1.7173379814718
402	86	84	1.3066574566299
402	88	85	1.5642673564376
403	84	82	2.3950169793823
403	85	83	3.3857994122125
403	86	84	3.3864398224322
403	88	85	4.4582875652781
404	84	82	1.5013780327747
404	85	83	4.0167799594346
404	86	84	6.1033566845115
404	88	85	8.0799105683574
405	85	83	665.51084512738
405	86	84	665.11590317507
405	88	85	664.04004636796
406	85	83	644.9241649818
406	86	84	643.5712180918
406	88	85	639.88567110755
407	85	83	2.51540192666
407	86	84	2.0865767250769
407	88	85	1.9765538838459
408	85	83	3.7447760993874
408	86	84	4.4945932137193
408	88	85	5.3973656767954
409	85	83	2.2885093853576
409	86	84	3.8555971282534
409	88	85	6.2248986682855
410	86	84	1208.7290627836
410	88	85	1206.4227343572
411	86	84	1329.5839350937
411	88	85	1328.5644795412
412	86	84	1.5670877428958
412	88	85	2.369301540032
413	86	84	2.7574250013158
413	88	85	4.9869994432402
414	86	84	1.4093671689043
414	88	85	3.8392408138374
415	88	85	851.16198680471
416	88	85	2739.350190745
417	88	85	2.4298736449331
418	88	85	3.5486903408462
419	88	85	2.5216427511536

