version 3
run Default-0-20260503-16:26:57-15516
attr configname Default
attr datetime 20260503-16:26:57
attr datetimef 20260503-162657
attr experiment Default
attr inifile omnetpp.ini
attr iterationvars ""
attr iterationvarsd ""
attr iterationvarsf ""
attr measurement ""
attr network RSUExampleScenario
attr processid 15516
attr repetition 0
attr replication #0
attr resultdir results
attr runnumber 0
attr seedset 0
config image-path ../../images
config cmdenv-express-mode true
config cmdenv-autoflush true
config cmdenv-status-frequency 1s
config **.cmdenv-log-level info
config image-path ../../images
config network RSUExampleScenario
config debug-on-errors true
config print-undisposed true
config sim-time-limit 200s
config **.scalar-recording true
config **.vector-recording true
config *.playgroundSizeX 5000m
config *.playgroundSizeY 5000m
config *.playgroundSizeZ 50m
config *.annotations.draw false
config *.manager.updateInterval 1s
config *.manager.host "\"localhost\""
config *.manager.port 9999
config *.manager.autoShutdown true
config *.manager.launchConfig "xmldoc(\"homs.launchd.xml\")"
config *.manager.trafficLightModuleType "\"org.car2x.veins.nodes.TrafficLight\""
config *.tls[*].mobility.x 2500
config *.tls[*].mobility.y 2500
config *.tls[*].mobility.z 3
config *.tls[*].applType "\"org.car2x.veins.modules.application.traci.TraCIDemoTrafficLightApp\""
config *.tls[*].logicType "\"org.car2x.veins.modules.world.traci.trafficLight.logics.TraCITrafficLightSimpleLogic\""
config *.rsu[0].mobility.x 2000
config *.rsu[0].mobility.y 2000
config *.rsu[0].mobility.z 3
config *.rsu[*].applType "\"TraCIDemoRSU11p\""
config *.rsu[*].appl.headerLength "80 bit"
config *.rsu[*].appl.sendBeacons false
config *.rsu[*].appl.dataOnSch false
config *.rsu[*].appl.beaconInterval 1s
config *.rsu[*].appl.beaconUserPriority 7
config *.rsu[*].appl.dataUserPriority 5
config *.rsu[*].nic.phy80211p.antennaOffsetZ "0 m"
config *.connectionManager.sendDirect true
config *.connectionManager.maxInterfDist 1000m
config *.connectionManager.drawMaxIntfDist false
config *.**.nic.mac1609_4.useServiceChannel false
config *.**.nic.mac1609_4.txPower 20mW
config *.**.nic.mac1609_4.bitrate 6Mbps
config *.**.nic.phy80211p.minPowerLevel -110dBm
config *.**.nic.phy80211p.useNoiseFloor true
config *.**.nic.phy80211p.noiseFloor -98dBm
config *.**.nic.phy80211p.decider "xmldoc(\"config.xml\")"
config *.**.nic.phy80211p.analogueModels "xmldoc(\"config.xml\")"
config *.**.nic.phy80211p.usePropagationDelay true
config *.**.nic.phy80211p.antenna "xmldoc(\"antenna.xml\", \"/root/Antenna[@id='monopole']\")"
config *.node[*].nic.phy80211p.antennaOffsetY "0 m"
config *.node[*].nic.phy80211p.antennaOffsetZ "1.895 m"
config *.node[*].applType "\"TraCIDemo11p\""
config *.node[*].appl.headerLength "80 bit"
config *.node[*].appl.sendBeacons false
config *.node[*].appl.dataOnSch false
config *.node[*].appl.beaconInterval 1s
config *.node[*].veinsmobility.x 0
config *.node[*].veinsmobility.y 0
config *.node[*].veinsmobility.z 0
config *.node[*].veinsmobility.setHostSpeed false
config *.node[*0].veinsmobility.accidentCount 1
config *.node[*0].veinsmobility.accidentStart 73s
config *.node[*0].veinsmobility.accidentDuration 50s

par RSUExampleScenario.node[12].appl typename "\"org.car2x.veins.modules.application.traci.TraCIDemo11p\""
par RSUExampleScenario.node[12].appl headerLength 80bit
attr unit bit
par RSUExampleScenario.node[12].appl sendBeacons false
par RSUExampleScenario.node[12].appl beaconLengthBits 256bit
attr unit bit
par RSUExampleScenario.node[12].appl beaconUserPriority 7
par RSUExampleScenario.node[12].appl beaconInterval 1s
attr unit s
par RSUExampleScenario.node[12].appl dataLengthBits 1024bit
attr unit bit
par RSUExampleScenario.node[12].appl dataOnSch false
par RSUExampleScenario.node[12].appl dataUserPriority 7
par RSUExampleScenario.node[12].appl avoidBeaconSynchronization true
par RSUExampleScenario.node[12].appl sendWSA false
par RSUExampleScenario.node[12].appl wsaLengthBits 250bit
attr unit bit
par RSUExampleScenario.node[12].appl wsaInterval 1s
attr unit s
scalar RSUExampleScenario.node[12].appl generatedWSMs 0
scalar RSUExampleScenario.node[12].appl receivedWSMs 0
scalar RSUExampleScenario.node[12].appl generatedBSMs 0
scalar RSUExampleScenario.node[12].appl receivedBSMs 0
scalar RSUExampleScenario.node[12].appl generatedWSAs 0
scalar RSUExampleScenario.node[12].appl receivedWSAs 0
par RSUExampleScenario.node[12].nic.phy80211p typename "\"org.car2x.veins.modules.phy.PhyLayer80211p\""
par RSUExampleScenario.node[12].nic.phy80211p recordStats false
par RSUExampleScenario.node[12].nic.phy80211p usePropagationDelay true
par RSUExampleScenario.node[12].nic.phy80211p noiseFloor -98dBm
attr unit dBm
par RSUExampleScenario.node[12].nic.phy80211p useNoiseFloor true
par RSUExampleScenario.node[12].nic.phy80211p antenna "<Antenna type=\"SampledAntenna1D\" id=\"monopole\">...</Antenna> at C:/Graduation_Project/02_Simulation_Workspace/veins/examples/veins/\\antenna.xml:35"
par RSUExampleScenario.node[12].nic.phy80211p antennaOffsetX 0m
attr unit m
par RSUExampleScenario.node[12].nic.phy80211p antennaOffsetY 0m
attr unit m
par RSUExampleScenario.node[12].nic.phy80211p antennaOffsetZ 1.895m
attr unit m
par RSUExampleScenario.node[12].nic.phy80211p antennaOffsetYaw 0rad
attr unit rad
par RSUExampleScenario.node[12].nic.phy80211p analogueModels "<root>...</root> at C:/Graduation_Project/02_Simulation_Workspace/veins/examples/veins/\\config.xml:34"
par RSUExampleScenario.node[12].nic.phy80211p decider "<root>...</root> at C:/Graduation_Project/02_Simulation_Workspace/veins/examples/veins/\\config.xml:34"
par RSUExampleScenario.node[12].nic.phy80211p minPowerLevel -110dBm
attr unit dBm
par RSUExampleScenario.node[12].nic.phy80211p timeRXToTX 0s
attr unit s
par RSUExampleScenario.node[12].nic.phy80211p timeRXToSleep 0s
attr unit s
par RSUExampleScenario.node[12].nic.phy80211p timeTXToRX 0s
attr unit s
par RSUExampleScenario.node[12].nic.phy80211p timeTXToSleep 0s
attr unit s
par RSUExampleScenario.node[12].nic.phy80211p timeSleepToRX 0s
attr unit s
par RSUExampleScenario.node[12].nic.phy80211p timeSleepToTX 0s
attr unit s
par RSUExampleScenario.node[12].nic.phy80211p initialRadioState 0
par RSUExampleScenario.node[12].nic.phy80211p radioMinAtt 1
par RSUExampleScenario.node[12].nic.phy80211p radioMaxAtt 0
par RSUExampleScenario.node[12].nic.phy80211p nbRadioChannels 1
par RSUExampleScenario.node[12].nic.phy80211p initialRadioChannel 0
par RSUExampleScenario.node[12].nic.phy80211p ccaThreshold -65dBm
attr unit dBm
par RSUExampleScenario.node[12].nic.phy80211p collectCollisionStatistics false
par RSUExampleScenario.node[12].nic.phy80211p allowTxDuringRx false
scalar RSUExampleScenario.node[12].nic.phy80211p busyTime 0
par RSUExampleScenario.node[12].nic.mac1609_4 typename "\"org.car2x.veins.modules.mac.ieee80211p.Mac1609_4\""
par RSUExampleScenario.node[12].nic.mac1609_4 notAffectedByHostState false
par RSUExampleScenario.node[12].nic.mac1609_4 headerLength 0bit
attr unit bit
par RSUExampleScenario.node[12].nic.mac1609_4 address "\"auto\""
par RSUExampleScenario.node[12].nic.mac1609_4 useServiceChannel false
par RSUExampleScenario.node[12].nic.mac1609_4 serviceChannel 1
par RSUExampleScenario.node[12].nic.mac1609_4 bitrate 6000000bps
attr unit bps
par RSUExampleScenario.node[12].nic.mac1609_4 syncOffset 0.0003s
attr unit s
par RSUExampleScenario.node[12].nic.mac1609_4 txPower 20mW
attr unit mW
par RSUExampleScenario.node[12].nic.mac1609_4 queueSize 0
par RSUExampleScenario.node[12].nic.mac1609_4 dot11RTSThreshold 12000bit
attr unit bit
par RSUExampleScenario.node[12].nic.mac1609_4 dot11ShortRetryLimit 7
par RSUExampleScenario.node[12].nic.mac1609_4 dot11LongRetryLimit 4
par RSUExampleScenario.node[12].nic.mac1609_4 ackLength 112bit
attr unit bit
par RSUExampleScenario.node[12].nic.mac1609_4 useAcks false
par RSUExampleScenario.node[12].nic.mac1609_4 frameErrorRate 0
par RSUExampleScenario.node[12].nic.mac1609_4 ackErrorRate 0
scalar RSUExampleScenario.node[12].nic.mac1609_4 ReceivedUnicastPackets 0
scalar RSUExampleScenario.node[12].nic.mac1609_4 ReceivedBroadcasts 0
scalar RSUExampleScenario.node[12].nic.mac1609_4 SentPackets 0
scalar RSUExampleScenario.node[12].nic.mac1609_4 SentAcknowledgements 0
scalar RSUExampleScenario.node[12].nic.mac1609_4 RetriesExceeded 0
scalar RSUExampleScenario.node[12].nic.mac1609_4 SNIRLostPackets 0
scalar RSUExampleScenario.node[12].nic.mac1609_4 RXTXLostPackets 0
scalar RSUExampleScenario.node[12].nic.mac1609_4 TotalLostPackets 0
scalar RSUExampleScenario.node[12].nic.mac1609_4 DroppedPacketsInMac 0
scalar RSUExampleScenario.node[12].nic.mac1609_4 TooLittleTime 0
scalar RSUExampleScenario.node[12].nic.mac1609_4 TimesIntoBackoff 0
scalar RSUExampleScenario.node[12].nic.mac1609_4 SlotsBackoff 0
scalar RSUExampleScenario.node[12].nic.mac1609_4 NumInternalContention 0
scalar RSUExampleScenario.node[12].nic.mac1609_4 totalBusyTime 0
scalar RSUExampleScenario.node[12].nic.mac1609_4 retriesExceeded:count 0
attr recordingmode count
attr source org_car2x_veins_modules_mac_sigRetriesExceeded
scalar RSUExampleScenario.node[12].nic.mac1609_4 sentAcks:count 0
attr recordingmode count
attr source org_car2x_veins_modules_mac_sigSentAck
scalar RSUExampleScenario.node[12].nic.mac1609_4 sentPackets:count 0
attr recordingmode count
attr source org_car2x_veins_modules_mac_sigSentPacket
scalar RSUExampleScenario.node[12].nic.mac1609_4 collisions:count 0
attr recordingmode count
attr source org_car2x_veins_modules_mac_sigCollision
scalar RSUExampleScenario.node[12].nic.mac1609_4 channelBusy:timeavg 0
attr recordingmode timeavg
attr source org_car2x_veins_modules_mac_sigChannelBusy
par RSUExampleScenario.node[12].nic typename "\"org.car2x.veins.modules.nic.Nic80211p\""
par RSUExampleScenario.node[12].nic connectionManagerName "\"connectionManager\""
par RSUExampleScenario.node[12].veinsmobility typename "\"org.car2x.veins.modules.mobility.traci.TraCIMobility\""
par RSUExampleScenario.node[12].veinsmobility notAffectedByHostState true
par RSUExampleScenario.node[12].veinsmobility x 0
par RSUExampleScenario.node[12].veinsmobility y 0
par RSUExampleScenario.node[12].veinsmobility z 0
par RSUExampleScenario.node[12].veinsmobility xOrientation 1
par RSUExampleScenario.node[12].veinsmobility yOrientation 0
par RSUExampleScenario.node[12].veinsmobility zOrientation 0
par RSUExampleScenario.node[12].veinsmobility hostPositionOffset 0m
attr unit m
par RSUExampleScenario.node[12].veinsmobility setHostSpeed false
par RSUExampleScenario.node[12].veinsmobility accidentCount 0
par RSUExampleScenario.node[12].veinsmobility accidentStart 47.053s
attr unit s
par RSUExampleScenario.node[12].veinsmobility accidentDuration "uniform(30s, 60s)"
attr unit s
par RSUExampleScenario.node[12].veinsmobility accidentInterval "uniform(30s, 60s)"
attr unit s
scalar RSUExampleScenario.node[12].veinsmobility startTime 13
scalar RSUExampleScenario.node[12].veinsmobility totalTime 33
scalar RSUExampleScenario.node[12].veinsmobility stopTime 47
scalar RSUExampleScenario.node[12].veinsmobility minSpeed 2.4864454656141
scalar RSUExampleScenario.node[12].veinsmobility maxSpeed 12.855292097374
scalar RSUExampleScenario.node[12].veinsmobility totalDistance 299.43053338038
scalar RSUExampleScenario.node[12].veinsmobility totalCO2Emission 120.12358365522
par RSUExampleScenario.node[12] typename "\"org.car2x.veins.nodes.Car\""
par RSUExampleScenario.node[12] applType "\"TraCIDemo11p\""
par RSUExampleScenario.node[12] nicType "\"Nic80211p\""
par RSUExampleScenario.node[12] veinsmobilityType "\"org.car2x.veins.modules.mobility.traci.TraCIMobility\""
par RSUExampleScenario.node[3].appl typename "\"org.car2x.veins.modules.application.traci.TraCIDemo11p\""
par RSUExampleScenario.node[3].appl headerLength 80bit
attr unit bit
par RSUExampleScenario.node[3].appl sendBeacons false
par RSUExampleScenario.node[3].appl beaconLengthBits 256bit
attr unit bit
par RSUExampleScenario.node[3].appl beaconUserPriority 7
par RSUExampleScenario.node[3].appl beaconInterval 1s
attr unit s
par RSUExampleScenario.node[3].appl dataLengthBits 1024bit
attr unit bit
par RSUExampleScenario.node[3].appl dataOnSch false
par RSUExampleScenario.node[3].appl dataUserPriority 7
par RSUExampleScenario.node[3].appl avoidBeaconSynchronization true
par RSUExampleScenario.node[3].appl sendWSA false
par RSUExampleScenario.node[3].appl wsaLengthBits 250bit
attr unit bit
par RSUExampleScenario.node[3].appl wsaInterval 1s
attr unit s
scalar RSUExampleScenario.node[3].appl generatedWSMs 0
scalar RSUExampleScenario.node[3].appl receivedWSMs 0
scalar RSUExampleScenario.node[3].appl generatedBSMs 0
scalar RSUExampleScenario.node[3].appl receivedBSMs 0
scalar RSUExampleScenario.node[3].appl generatedWSAs 0
scalar RSUExampleScenario.node[3].appl receivedWSAs 0
par RSUExampleScenario.node[3].nic.phy80211p typename "\"org.car2x.veins.modules.phy.PhyLayer80211p\""
par RSUExampleScenario.node[3].nic.phy80211p recordStats false
par RSUExampleScenario.node[3].nic.phy80211p usePropagationDelay true
par RSUExampleScenario.node[3].nic.phy80211p noiseFloor -98dBm
attr unit dBm
par RSUExampleScenario.node[3].nic.phy80211p useNoiseFloor true
par RSUExampleScenario.node[3].nic.phy80211p antenna "<Antenna type=\"SampledAntenna1D\" id=\"monopole\">...</Antenna> at C:/Graduation_Project/02_Simulation_Workspace/veins/examples/veins/\\antenna.xml:35"
par RSUExampleScenario.node[3].nic.phy80211p antennaOffsetX 0m
attr unit m
par RSUExampleScenario.node[3].nic.phy80211p antennaOffsetY 0m
attr unit m
par RSUExampleScenario.node[3].nic.phy80211p antennaOffsetZ 1.895m
attr unit m
par RSUExampleScenario.node[3].nic.phy80211p antennaOffsetYaw 0rad
attr unit rad
par RSUExampleScenario.node[3].nic.phy80211p analogueModels "<root>...</root> at C:/Graduation_Project/02_Simulation_Workspace/veins/examples/veins/\\config.xml:34"
par RSUExampleScenario.node[3].nic.phy80211p decider "<root>...</root> at C:/Graduation_Project/02_Simulation_Workspace/veins/examples/veins/\\config.xml:34"
par RSUExampleScenario.node[3].nic.phy80211p minPowerLevel -110dBm
attr unit dBm
par RSUExampleScenario.node[3].nic.phy80211p timeRXToTX 0s
attr unit s
par RSUExampleScenario.node[3].nic.phy80211p timeRXToSleep 0s
attr unit s
par RSUExampleScenario.node[3].nic.phy80211p timeTXToRX 0s
attr unit s
par RSUExampleScenario.node[3].nic.phy80211p timeTXToSleep 0s
attr unit s
par RSUExampleScenario.node[3].nic.phy80211p timeSleepToRX 0s
attr unit s
par RSUExampleScenario.node[3].nic.phy80211p timeSleepToTX 0s
attr unit s
par RSUExampleScenario.node[3].nic.phy80211p initialRadioState 0
par RSUExampleScenario.node[3].nic.phy80211p radioMinAtt 1
par RSUExampleScenario.node[3].nic.phy80211p radioMaxAtt 0
par RSUExampleScenario.node[3].nic.phy80211p nbRadioChannels 1
par RSUExampleScenario.node[3].nic.phy80211p initialRadioChannel 0
par RSUExampleScenario.node[3].nic.phy80211p ccaThreshold -65dBm
attr unit dBm
par RSUExampleScenario.node[3].nic.phy80211p collectCollisionStatistics false
par RSUExampleScenario.node[3].nic.phy80211p allowTxDuringRx false
scalar RSUExampleScenario.node[3].nic.phy80211p busyTime 0
par RSUExampleScenario.node[3].nic.mac1609_4 typename "\"org.car2x.veins.modules.mac.ieee80211p.Mac1609_4\""
par RSUExampleScenario.node[3].nic.mac1609_4 notAffectedByHostState false
par RSUExampleScenario.node[3].nic.mac1609_4 headerLength 0bit
attr unit bit
par RSUExampleScenario.node[3].nic.mac1609_4 address "\"auto\""
par RSUExampleScenario.node[3].nic.mac1609_4 useServiceChannel false
par RSUExampleScenario.node[3].nic.mac1609_4 serviceChannel 1
par RSUExampleScenario.node[3].nic.mac1609_4 bitrate 6000000bps
attr unit bps
par RSUExampleScenario.node[3].nic.mac1609_4 syncOffset 0.0003s
attr unit s
par RSUExampleScenario.node[3].nic.mac1609_4 txPower 20mW
attr unit mW
par RSUExampleScenario.node[3].nic.mac1609_4 queueSize 0
par RSUExampleScenario.node[3].nic.mac1609_4 dot11RTSThreshold 12000bit
attr unit bit
par RSUExampleScenario.node[3].nic.mac1609_4 dot11ShortRetryLimit 7
par RSUExampleScenario.node[3].nic.mac1609_4 dot11LongRetryLimit 4
par RSUExampleScenario.node[3].nic.mac1609_4 ackLength 112bit
attr unit bit
par RSUExampleScenario.node[3].nic.mac1609_4 useAcks false
par RSUExampleScenario.node[3].nic.mac1609_4 frameErrorRate 0
par RSUExampleScenario.node[3].nic.mac1609_4 ackErrorRate 0
scalar RSUExampleScenario.node[3].nic.mac1609_4 ReceivedUnicastPackets 0
scalar RSUExampleScenario.node[3].nic.mac1609_4 ReceivedBroadcasts 0
scalar RSUExampleScenario.node[3].nic.mac1609_4 SentPackets 0
scalar RSUExampleScenario.node[3].nic.mac1609_4 SentAcknowledgements 0
scalar RSUExampleScenario.node[3].nic.mac1609_4 RetriesExceeded 0
scalar RSUExampleScenario.node[3].nic.mac1609_4 SNIRLostPackets 0
scalar RSUExampleScenario.node[3].nic.mac1609_4 RXTXLostPackets 0
scalar RSUExampleScenario.node[3].nic.mac1609_4 TotalLostPackets 0
scalar RSUExampleScenario.node[3].nic.mac1609_4 DroppedPacketsInMac 0
scalar RSUExampleScenario.node[3].nic.mac1609_4 TooLittleTime 0
scalar RSUExampleScenario.node[3].nic.mac1609_4 TimesIntoBackoff 0
scalar RSUExampleScenario.node[3].nic.mac1609_4 SlotsBackoff 0
scalar RSUExampleScenario.node[3].nic.mac1609_4 NumInternalContention 0
scalar RSUExampleScenario.node[3].nic.mac1609_4 totalBusyTime 0
scalar RSUExampleScenario.node[3].nic.mac1609_4 retriesExceeded:count 0
attr recordingmode count
attr source org_car2x_veins_modules_mac_sigRetriesExceeded
scalar RSUExampleScenario.node[3].nic.mac1609_4 sentAcks:count 0
attr recordingmode count
attr source org_car2x_veins_modules_mac_sigSentAck
scalar RSUExampleScenario.node[3].nic.mac1609_4 sentPackets:count 0
attr recordingmode count
attr source org_car2x_veins_modules_mac_sigSentPacket
scalar RSUExampleScenario.node[3].nic.mac1609_4 collisions:count 0
attr recordingmode count
attr source org_car2x_veins_modules_mac_sigCollision
scalar RSUExampleScenario.node[3].nic.mac1609_4 channelBusy:timeavg 0
attr recordingmode timeavg
attr source org_car2x_veins_modules_mac_sigChannelBusy
par RSUExampleScenario.node[3].nic typename "\"org.car2x.veins.modules.nic.Nic80211p\""
par RSUExampleScenario.node[3].nic connectionManagerName "\"connectionManager\""
par RSUExampleScenario.node[3].veinsmobility typename "\"org.car2x.veins.modules.mobility.traci.TraCIMobility\""
par RSUExampleScenario.node[3].veinsmobility notAffectedByHostState true
par RSUExampleScenario.node[3].veinsmobility x 0
par RSUExampleScenario.node[3].veinsmobility y 0
par RSUExampleScenario.node[3].veinsmobility z 0
par RSUExampleScenario.node[3].veinsmobility xOrientation 1
par RSUExampleScenario.node[3].veinsmobility yOrientation 0
par RSUExampleScenario.node[3].veinsmobility zOrientation 0
par RSUExampleScenario.node[3].veinsmobility hostPositionOffset 0m
attr unit m
par RSUExampleScenario.node[3].veinsmobility setHostSpeed false
par RSUExampleScenario.node[3].veinsmobility accidentCount 0
par RSUExampleScenario.node[3].veinsmobility accidentStart 45.8668s
attr unit s
par RSUExampleScenario.node[3].veinsmobility accidentDuration "uniform(30s, 60s)"
attr unit s
par RSUExampleScenario.node[3].veinsmobility accidentInterval "uniform(30s, 60s)"
attr unit s
scalar RSUExampleScenario.node[3].veinsmobility startTime 4
scalar RSUExampleScenario.node[3].veinsmobility totalTime 43
scalar RSUExampleScenario.node[3].veinsmobility stopTime 48
scalar RSUExampleScenario.node[3].veinsmobility minSpeed 2.1253627492348
scalar RSUExampleScenario.node[3].veinsmobility maxSpeed 14.07977965192
scalar RSUExampleScenario.node[3].veinsmobility totalDistance 455.82374435056
scalar RSUExampleScenario.node[3].veinsmobility totalCO2Emission 139.29853985851
par RSUExampleScenario.node[3] typename "\"org.car2x.veins.nodes.Car\""
par RSUExampleScenario.node[3] applType "\"TraCIDemo11p\""
par RSUExampleScenario.node[3] nicType "\"Nic80211p\""
par RSUExampleScenario.node[3] veinsmobilityType "\"org.car2x.veins.modules.mobility.traci.TraCIMobility\""
par RSUExampleScenario.node[15].appl typename "\"org.car2x.veins.modules.application.traci.TraCIDemo11p\""
par RSUExampleScenario.node[15].appl headerLength 80bit
attr unit bit
par RSUExampleScenario.node[15].appl sendBeacons false
par RSUExampleScenario.node[15].appl beaconLengthBits 256bit
attr unit bit
par RSUExampleScenario.node[15].appl beaconUserPriority 7
par RSUExampleScenario.node[15].appl beaconInterval 1s
attr unit s
par RSUExampleScenario.node[15].appl dataLengthBits 1024bit
attr unit bit
par RSUExampleScenario.node[15].appl dataOnSch false
par RSUExampleScenario.node[15].appl dataUserPriority 7
par RSUExampleScenario.node[15].appl avoidBeaconSynchronization true
par RSUExampleScenario.node[15].appl sendWSA false
par RSUExampleScenario.node[15].appl wsaLengthBits 250bit
attr unit bit
par RSUExampleScenario.node[15].appl wsaInterval 1s
attr unit s
scalar RSUExampleScenario.node[15].appl generatedWSMs 0
scalar RSUExampleScenario.node[15].appl receivedWSMs 0
scalar RSUExampleScenario.node[15].appl generatedBSMs 0
scalar RSUExampleScenario.node[15].appl receivedBSMs 0
scalar RSUExampleScenario.node[15].appl generatedWSAs 0
scalar RSUExampleScenario.node[15].appl receivedWSAs 0
par RSUExampleScenario.node[15].nic.phy80211p typename "\"org.car2x.veins.modules.phy.PhyLayer80211p\""
par RSUExampleScenario.node[15].nic.phy80211p recordStats false
par RSUExampleScenario.node[15].nic.phy80211p usePropagationDelay true
par RSUExampleScenario.node[15].nic.phy80211p noiseFloor -98dBm
attr unit dBm
par RSUExampleScenario.node[15].nic.phy80211p useNoiseFloor true
par RSUExampleScenario.node[15].nic.phy80211p antenna "<Antenna type=\"SampledAntenna1D\" id=\"monopole\">...</Antenna> at C:/Graduation_Project/02_Simulation_Workspace/veins/examples/veins/\\antenna.xml:35"
par RSUExampleScenario.node[15].nic.phy80211p antennaOffsetX 0m
attr unit m
par RSUExampleScenario.node[15].nic.phy80211p antennaOffsetY 0m
attr unit m
par RSUExampleScenario.node[15].nic.phy80211p antennaOffsetZ 1.895m
attr unit m
par RSUExampleScenario.node[15].nic.phy80211p antennaOffsetYaw 0rad
attr unit rad
par RSUExampleScenario.node[15].nic.phy80211p analogueModels "<root>...</root> at C:/Graduation_Project/02_Simulation_Workspace/veins/examples/veins/\\config.xml:34"
par RSUExampleScenario.node[15].nic.phy80211p decider "<root>...</root> at C:/Graduation_Project/02_Simulation_Workspace/veins/examples/veins/\\config.xml:34"
par RSUExampleScenario.node[15].nic.phy80211p minPowerLevel -110dBm
attr unit dBm
par RSUExampleScenario.node[15].nic.phy80211p timeRXToTX 0s
attr unit s
par RSUExampleScenario.node[15].nic.phy80211p timeRXToSleep 0s
attr unit s
par RSUExampleScenario.node[15].nic.phy80211p timeTXToRX 0s
attr unit s
par RSUExampleScenario.node[15].nic.phy80211p timeTXToSleep 0s
attr unit s
par RSUExampleScenario.node[15].nic.phy80211p timeSleepToRX 0s
attr unit s
par RSUExampleScenario.node[15].nic.phy80211p timeSleepToTX 0s
attr unit s
par RSUExampleScenario.node[15].nic.phy80211p initialRadioState 0
par RSUExampleScenario.node[15].nic.phy80211p radioMinAtt 1
par RSUExampleScenario.node[15].nic.phy80211p radioMaxAtt 0
par RSUExampleScenario.node[15].nic.phy80211p nbRadioChannels 1
par RSUExampleScenario.node[15].nic.phy80211p initialRadioChannel 0
par RSUExampleScenario.node[15].nic.phy80211p ccaThreshold -65dBm
attr unit dBm
par RSUExampleScenario.node[15].nic.phy80211p collectCollisionStatistics false
par RSUExampleScenario.node[15].nic.phy80211p allowTxDuringRx false
scalar RSUExampleScenario.node[15].nic.phy80211p busyTime 0
par RSUExampleScenario.node[15].nic.mac1609_4 typename "\"org.car2x.veins.modules.mac.ieee80211p.Mac1609_4\""
par RSUExampleScenario.node[15].nic.mac1609_4 notAffectedByHostState false
par RSUExampleScenario.node[15].nic.mac1609_4 headerLength 0bit
attr unit bit
par RSUExampleScenario.node[15].nic.mac1609_4 address "\"auto\""
par RSUExampleScenario.node[15].nic.mac1609_4 useServiceChannel false
par RSUExampleScenario.node[15].nic.mac1609_4 serviceChannel 1
par RSUExampleScenario.node[15].nic.mac1609_4 bitrate 6000000bps
attr unit bps
par RSUExampleScenario.node[15].nic.mac1609_4 syncOffset 0.0003s
attr unit s
par RSUExampleScenario.node[15].nic.mac1609_4 txPower 20mW
attr unit mW
par RSUExampleScenario.node[15].nic.mac1609_4 queueSize 0
par RSUExampleScenario.node[15].nic.mac1609_4 dot11RTSThreshold 12000bit
attr unit bit
par RSUExampleScenario.node[15].nic.mac1609_4 dot11ShortRetryLimit 7
par RSUExampleScenario.node[15].nic.mac1609_4 dot11LongRetryLimit 4
par RSUExampleScenario.node[15].nic.mac1609_4 ackLength 112bit
attr unit bit
par RSUExampleScenario.node[15].nic.mac1609_4 useAcks false
par RSUExampleScenario.node[15].nic.mac1609_4 frameErrorRate 0
par RSUExampleScenario.node[15].nic.mac1609_4 ackErrorRate 0
scalar RSUExampleScenario.node[15].nic.mac1609_4 ReceivedUnicastPackets 0
scalar RSUExampleScenario.node[15].nic.mac1609_4 ReceivedBroadcasts 0
scalar RSUExampleScenario.node[15].nic.mac1609_4 SentPackets 0
scalar RSUExampleScenario.node[15].nic.mac1609_4 SentAcknowledgements 0
scalar RSUExampleScenario.node[15].nic.mac1609_4 RetriesExceeded 0
scalar RSUExampleScenario.node[15].nic.mac1609_4 SNIRLostPackets 0
scalar RSUExampleScenario.node[15].nic.mac1609_4 RXTXLostPackets 0
scalar RSUExampleScenario.node[15].nic.mac1609_4 TotalLostPackets 0
scalar RSUExampleScenario.node[15].nic.mac1609_4 DroppedPacketsInMac 0
scalar RSUExampleScenario.node[15].nic.mac1609_4 TooLittleTime 0
scalar RSUExampleScenario.node[15].nic.mac1609_4 TimesIntoBackoff 0
scalar RSUExampleScenario.node[15].nic.mac1609_4 SlotsBackoff 0
scalar RSUExampleScenario.node[15].nic.mac1609_4 NumInternalContention 0
scalar RSUExampleScenario.node[15].nic.mac1609_4 totalBusyTime 0
scalar RSUExampleScenario.node[15].nic.mac1609_4 retriesExceeded:count 0
attr recordingmode count
attr source org_car2x_veins_modules_mac_sigRetriesExceeded
scalar RSUExampleScenario.node[15].nic.mac1609_4 sentAcks:count 0
attr recordingmode count
attr source org_car2x_veins_modules_mac_sigSentAck
scalar RSUExampleScenario.node[15].nic.mac1609_4 sentPackets:count 0
attr recordingmode count
attr source org_car2x_veins_modules_mac_sigSentPacket
scalar RSUExampleScenario.node[15].nic.mac1609_4 collisions:count 0
attr recordingmode count
attr source org_car2x_veins_modules_mac_sigCollision
scalar RSUExampleScenario.node[15].nic.mac1609_4 channelBusy:timeavg 0
attr recordingmode timeavg
attr source org_car2x_veins_modules_mac_sigChannelBusy
par RSUExampleScenario.node[15].nic typename "\"org.car2x.veins.modules.nic.Nic80211p\""
par RSUExampleScenario.node[15].nic connectionManagerName "\"connectionManager\""
par RSUExampleScenario.node[15].veinsmobility typename "\"org.car2x.veins.modules.mobility.traci.TraCIMobility\""
par RSUExampleScenario.node[15].veinsmobility notAffectedByHostState true
par RSUExampleScenario.node[15].veinsmobility x 0
par RSUExampleScenario.node[15].veinsmobility y 0
par RSUExampleScenario.node[15].veinsmobility z 0
par RSUExampleScenario.node[15].veinsmobility xOrientation 1
par RSUExampleScenario.node[15].veinsmobility yOrientation 0
par RSUExampleScenario.node[15].veinsmobility zOrientation 0
par RSUExampleScenario.node[15].veinsmobility hostPositionOffset 0m
attr unit m
par RSUExampleScenario.node[15].veinsmobility setHostSpeed false
par RSUExampleScenario.node[15].veinsmobility accidentCount 0
par RSUExampleScenario.node[15].veinsmobility accidentStart 48.3919s
attr unit s
par RSUExampleScenario.node[15].veinsmobility accidentDuration "uniform(30s, 60s)"
attr unit s
par RSUExampleScenario.node[15].veinsmobility accidentInterval "uniform(30s, 60s)"
attr unit s
scalar RSUExampleScenario.node[15].veinsmobility startTime 16
scalar RSUExampleScenario.node[15].veinsmobility totalTime 35
scalar RSUExampleScenario.node[15].veinsmobility stopTime 52
scalar RSUExampleScenario.node[15].veinsmobility minSpeed 1.8798766718246
scalar RSUExampleScenario.node[15].veinsmobility maxSpeed 28.803992068041
scalar RSUExampleScenario.node[15].veinsmobility totalDistance 782.23563467385
scalar RSUExampleScenario.node[15].veinsmobility totalCO2Emission 220.07658674292
par RSUExampleScenario.node[15] typename "\"org.car2x.veins.nodes.Car\""
par RSUExampleScenario.node[15] applType "\"TraCIDemo11p\""
par RSUExampleScenario.node[15] nicType "\"Nic80211p\""
par RSUExampleScenario.node[15] veinsmobilityType "\"org.car2x.veins.modules.mobility.traci.TraCIMobility\""
par RSUExampleScenario.node[30].appl typename "\"org.car2x.veins.modules.application.traci.TraCIDemo11p\""
par RSUExampleScenario.node[30].appl headerLength 80bit
attr unit bit
par RSUExampleScenario.node[30].appl sendBeacons false
par RSUExampleScenario.node[30].appl beaconLengthBits 256bit
attr unit bit
par RSUExampleScenario.node[30].appl beaconUserPriority 7
par RSUExampleScenario.node[30].appl beaconInterval 1s
attr unit s
par RSUExampleScenario.node[30].appl dataLengthBits 1024bit
attr unit bit
par RSUExampleScenario.node[30].appl dataOnSch false
par RSUExampleScenario.node[30].appl dataUserPriority 7
par RSUExampleScenario.node[30].appl avoidBeaconSynchronization true
par RSUExampleScenario.node[30].appl sendWSA false
par RSUExampleScenario.node[30].appl wsaLengthBits 250bit
attr unit bit
par RSUExampleScenario.node[30].appl wsaInterval 1s
attr unit s
scalar RSUExampleScenario.node[30].appl generatedWSMs 0
scalar RSUExampleScenario.node[30].appl receivedWSMs 0
scalar RSUExampleScenario.node[30].appl generatedBSMs 0
scalar RSUExampleScenario.node[30].appl receivedBSMs 0
scalar RSUExampleScenario.node[30].appl generatedWSAs 0
scalar RSUExampleScenario.node[30].appl receivedWSAs 0
par RSUExampleScenario.node[30].nic.phy80211p typename "\"org.car2x.veins.modules.phy.PhyLayer80211p\""
par RSUExampleScenario.node[30].nic.phy80211p recordStats false
par RSUExampleScenario.node[30].nic.phy80211p usePropagationDelay true
par RSUExampleScenario.node[30].nic.phy80211p noiseFloor -98dBm
attr unit dBm
par RSUExampleScenario.node[30].nic.phy80211p useNoiseFloor true
par RSUExampleScenario.node[30].nic.phy80211p antenna "<Antenna type=\"SampledAntenna1D\" id=\"monopole\">...</Antenna> at C:/Graduation_Project/02_Simulation_Workspace/veins/examples/veins/\\antenna.xml:35"
par RSUExampleScenario.node[30].nic.phy80211p antennaOffsetX 0m
attr unit m
par RSUExampleScenario.node[30].nic.phy80211p antennaOffsetY 0m
attr unit m
par RSUExampleScenario.node[30].nic.phy80211p antennaOffsetZ 1.895m
attr unit m
par RSUExampleScenario.node[30].nic.phy80211p antennaOffsetYaw 0rad
attr unit rad
par RSUExampleScenario.node[30].nic.phy80211p analogueModels "<root>...</root> at C:/Graduation_Project/02_Simulation_Workspace/veins/examples/veins/\\config.xml:34"
par RSUExampleScenario.node[30].nic.phy80211p decider "<root>...</root> at C:/Graduation_Project/02_Simulation_Workspace/veins/examples/veins/\\config.xml:34"
par RSUExampleScenario.node[30].nic.phy80211p minPowerLevel -110dBm
attr unit dBm
par RSUExampleScenario.node[30].nic.phy80211p timeRXToTX 0s
attr unit s
par RSUExampleScenario.node[30].nic.phy80211p timeRXToSleep 0s
attr unit s
par RSUExampleScenario.node[30].nic.phy80211p timeTXToRX 0s
attr unit s
par RSUExampleScenario.node[30].nic.phy80211p timeTXToSleep 0s
attr unit s
par RSUExampleScenario.node[30].nic.phy80211p timeSleepToRX 0s
attr unit s
par RSUExampleScenario.node[30].nic.phy80211p timeSleepToTX 0s
attr unit s
par RSUExampleScenario.node[30].nic.phy80211p initialRadioState 0
par RSUExampleScenario.node[30].nic.phy80211p radioMinAtt 1
par RSUExampleScenario.node[30].nic.phy80211p radioMaxAtt 0
par RSUExampleScenario.node[30].nic.phy80211p nbRadioChannels 1
par RSUExampleScenario.node[30].nic.phy80211p initialRadioChannel 0
par RSUExampleScenario.node[30].nic.phy80211p ccaThreshold -65dBm
attr unit dBm
par RSUExampleScenario.node[30].nic.phy80211p collectCollisionStatistics false
par RSUExampleScenario.node[30].nic.phy80211p allowTxDuringRx false
scalar RSUExampleScenario.node[30].nic.phy80211p busyTime 0
par RSUExampleScenario.node[30].nic.mac1609_4 typename "\"org.car2x.veins.modules.mac.ieee80211p.Mac1609_4\""
par RSUExampleScenario.node[30].nic.mac1609_4 notAffectedByHostState false
par RSUExampleScenario.node[30].nic.mac1609_4 headerLength 0bit
attr unit bit
par RSUExampleScenario.node[30].nic.mac1609_4 address "\"auto\""
par RSUExampleScenario.node[30].nic.mac1609_4 useServiceChannel false
par RSUExampleScenario.node[30].nic.mac1609_4 serviceChannel 1
par RSUExampleScenario.node[30].nic.mac1609_4 bitrate 6000000bps
attr unit bps
par RSUExampleScenario.node[30].nic.mac1609_4 syncOffset 0.0003s
attr unit s
par RSUExampleScenario.node[30].nic.mac1609_4 txPower 20mW
attr unit mW
par RSUExampleScenario.node[30].nic.mac1609_4 queueSize 0
par RSUExampleScenario.node[30].nic.mac1609_4 dot11RTSThreshold 12000bit
attr unit bit
par RSUExampleScenario.node[30].nic.mac1609_4 dot11ShortRetryLimit 7
par RSUExampleScenario.node[30].nic.mac1609_4 dot11LongRetryLimit 4
par RSUExampleScenario.node[30].nic.mac1609_4 ackLength 112bit
attr unit bit
par RSUExampleScenario.node[30].nic.mac1609_4 useAcks false
par RSUExampleScenario.node[30].nic.mac1609_4 frameErrorRate 0
par RSUExampleScenario.node[30].nic.mac1609_4 ackErrorRate 0
scalar RSUExampleScenario.node[30].nic.mac1609_4 ReceivedUnicastPackets 0
scalar RSUExampleScenario.node[30].nic.mac1609_4 ReceivedBroadcasts 0
scalar RSUExampleScenario.node[30].nic.mac1609_4 SentPackets 0
scalar RSUExampleScenario.node[30].nic.mac1609_4 SentAcknowledgements 0
scalar RSUExampleScenario.node[30].nic.mac1609_4 RetriesExceeded 0
scalar RSUExampleScenario.node[30].nic.mac1609_4 SNIRLostPackets 0
scalar RSUExampleScenario.node[30].nic.mac1609_4 RXTXLostPackets 0
scalar RSUExampleScenario.node[30].nic.mac1609_4 TotalLostPackets 0
scalar RSUExampleScenario.node[30].nic.mac1609_4 DroppedPacketsInMac 0
scalar RSUExampleScenario.node[30].nic.mac1609_4 TooLittleTime 0
scalar RSUExampleScenario.node[30].nic.mac1609_4 TimesIntoBackoff 0
scalar RSUExampleScenario.node[30].nic.mac1609_4 SlotsBackoff 0
scalar RSUExampleScenario.node[30].nic.mac1609_4 NumInternalContention 0
scalar RSUExampleScenario.node[30].nic.mac1609_4 totalBusyTime 0
scalar RSUExampleScenario.node[30].nic.mac1609_4 retriesExceeded:count 0
attr recordingmode count
attr source org_car2x_veins_modules_mac_sigRetriesExceeded
scalar RSUExampleScenario.node[30].nic.mac1609_4 sentAcks:count 0
attr recordingmode count
attr source org_car2x_veins_modules_mac_sigSentAck
scalar RSUExampleScenario.node[30].nic.mac1609_4 sentPackets:count 0
attr recordingmode count
attr source org_car2x_veins_modules_mac_sigSentPacket
scalar RSUExampleScenario.node[30].nic.mac1609_4 collisions:count 0
attr recordingmode count
attr source org_car2x_veins_modules_mac_sigCollision
scalar RSUExampleScenario.node[30].nic.mac1609_4 channelBusy:timeavg 0
attr recordingmode timeavg
attr source org_car2x_veins_modules_mac_sigChannelBusy
par RSUExampleScenario.node[30].nic typename "\"org.car2x.veins.modules.nic.Nic80211p\""
par RSUExampleScenario.node[30].nic connectionManagerName "\"connectionManager\""
par RSUExampleScenario.node[30].veinsmobility typename "\"org.car2x.veins.modules.mobility.traci.TraCIMobility\""
par RSUExampleScenario.node[30].veinsmobility notAffectedByHostState true
par RSUExampleScenario.node[30].veinsmobility x 0
par RSUExampleScenario.node[30].veinsmobility y 0
par RSUExampleScenario.node[30].veinsmobility z 0
par RSUExampleScenario.node[30].veinsmobility xOrientation 1
par RSUExampleScenario.node[30].veinsmobility yOrientation 0
par RSUExampleScenario.node[30].veinsmobility zOrientation 0
par RSUExampleScenario.node[30].veinsmobility hostPositionOffset 0m
attr unit m
par RSUExampleScenario.node[30].veinsmobility setHostSpeed false
par RSUExampleScenario.node[30].veinsmobility accidentCount 1
par RSUExampleScenario.node[30].veinsmobility accidentStart 73s
attr unit s
par RSUExampleScenario.node[30].veinsmobility accidentDuration 50s
attr unit s
par RSUExampleScenario.node[30].veinsmobility accidentInterval "uniform(30s, 60s)"
attr unit s
scalar RSUExampleScenario.node[30].veinsmobility startTime 31
scalar RSUExampleScenario.node[30].veinsmobility totalTime 32
scalar RSUExampleScenario.node[30].veinsmobility stopTime 64
scalar RSUExampleScenario.node[30].veinsmobility minSpeed 1.6529342174064
scalar RSUExampleScenario.node[30].veinsmobility maxSpeed 15.516016592613
scalar RSUExampleScenario.node[30].veinsmobility totalDistance 275.06852411289
scalar RSUExampleScenario.node[30].veinsmobility totalCO2Emission 119.60723567885
par RSUExampleScenario.node[30] typename "\"org.car2x.veins.nodes.Car\""
par RSUExampleScenario.node[30] applType "\"TraCIDemo11p\""
par RSUExampleScenario.node[30] nicType "\"Nic80211p\""
par RSUExampleScenario.node[30] veinsmobilityType "\"org.car2x.veins.modules.mobility.traci.TraCIMobility\""
par RSUExampleScenario.node[2].appl typename "\"org.car2x.veins.modules.application.traci.TraCIDemo11p\""
par RSUExampleScenario.node[2].appl headerLength 80bit
attr unit bit
par RSUExampleScenario.node[2].appl sendBeacons false
par RSUExampleScenario.node[2].appl beaconLengthBits 256bit
attr unit bit
par RSUExampleScenario.node[2].appl beaconUserPriority 7
par RSUExampleScenario.node[2].appl beaconInterval 1s
attr unit s
par RSUExampleScenario.node[2].appl dataLengthBits 1024bit
attr unit bit
par RSUExampleScenario.node[2].appl dataOnSch false
par RSUExampleScenario.node[2].appl dataUserPriority 7
par RSUExampleScenario.node[2].appl avoidBeaconSynchronization true
par RSUExampleScenario.node[2].appl sendWSA false
par RSUExampleScenario.node[2].appl wsaLengthBits 250bit
attr unit bit
par RSUExampleScenario.node[2].appl wsaInterval 1s
attr unit s
scalar RSUExampleScenario.node[2].appl generatedWSMs 0
scalar RSUExampleScenario.node[2].appl receivedWSMs 0
scalar RSUExampleScenario.node[2].appl generatedBSMs 0
scalar RSUExampleScenario.node[2].appl receivedBSMs 0
scalar RSUExampleScenario.node[2].appl generatedWSAs 0
scalar RSUExampleScenario.node[2].appl receivedWSAs 0
par RSUExampleScenario.node[2].nic.phy80211p typename "\"org.car2x.veins.modules.phy.PhyLayer80211p\""
par RSUExampleScenario.node[2].nic.phy80211p recordStats false
par RSUExampleScenario.node[2].nic.phy80211p usePropagationDelay true
par RSUExampleScenario.node[2].nic.phy80211p noiseFloor -98dBm
attr unit dBm
par RSUExampleScenario.node[2].nic.phy80211p useNoiseFloor true
par RSUExampleScenario.node[2].nic.phy80211p antenna "<Antenna type=\"SampledAntenna1D\" id=\"monopole\">...</Antenna> at C:/Graduation_Project/02_Simulation_Workspace/veins/examples/veins/\\antenna.xml:35"
par RSUExampleScenario.node[2].nic.phy80211p antennaOffsetX 0m
attr unit m
par RSUExampleScenario.node[2].nic.phy80211p antennaOffsetY 0m
attr unit m
par RSUExampleScenario.node[2].nic.phy80211p antennaOffsetZ 1.895m
attr unit m
par RSUExampleScenario.node[2].nic.phy80211p antennaOffsetYaw 0rad
attr unit rad
par RSUExampleScenario.node[2].nic.phy80211p analogueModels "<root>...</root> at C:/Graduation_Project/02_Simulation_Workspace/veins/examples/veins/\\config.xml:34"
par RSUExampleScenario.node[2].nic.phy80211p decider "<root>...</root> at C:/Graduation_Project/02_Simulation_Workspace/veins/examples/veins/\\config.xml:34"
par RSUExampleScenario.node[2].nic.phy80211p minPowerLevel -110dBm
attr unit dBm
par RSUExampleScenario.node[2].nic.phy80211p timeRXToTX 0s
attr unit s
par RSUExampleScenario.node[2].nic.phy80211p timeRXToSleep 0s
attr unit s
par RSUExampleScenario.node[2].nic.phy80211p timeTXToRX 0s
attr unit s
par RSUExampleScenario.node[2].nic.phy80211p timeTXToSleep 0s
attr unit s
par RSUExampleScenario.node[2].nic.phy80211p timeSleepToRX 0s
attr unit s
par RSUExampleScenario.node[2].nic.phy80211p timeSleepToTX 0s
attr unit s
par RSUExampleScenario.node[2].nic.phy80211p initialRadioState 0
par RSUExampleScenario.node[2].nic.phy80211p radioMinAtt 1
par RSUExampleScenario.node[2].nic.phy80211p radioMaxAtt 0
par RSUExampleScenario.node[2].nic.phy80211p nbRadioChannels 1
par RSUExampleScenario.node[2].nic.phy80211p initialRadioChannel 0
par RSUExampleScenario.node[2].nic.phy80211p ccaThreshold -65dBm
attr unit dBm
par RSUExampleScenario.node[2].nic.phy80211p collectCollisionStatistics false
par RSUExampleScenario.node[2].nic.phy80211p allowTxDuringRx false
scalar RSUExampleScenario.node[2].nic.phy80211p busyTime 0
par RSUExampleScenario.node[2].nic.mac1609_4 typename "\"org.car2x.veins.modules.mac.ieee80211p.Mac1609_4\""
par RSUExampleScenario.node[2].nic.mac1609_4 notAffectedByHostState false
par RSUExampleScenario.node[2].nic.mac1609_4 headerLength 0bit
attr unit bit
par RSUExampleScenario.node[2].nic.mac1609_4 address "\"auto\""
par RSUExampleScenario.node[2].nic.mac1609_4 useServiceChannel false
par RSUExampleScenario.node[2].nic.mac1609_4 serviceChannel 1
par RSUExampleScenario.node[2].nic.mac1609_4 bitrate 6000000bps
attr unit bps
par RSUExampleScenario.node[2].nic.mac1609_4 syncOffset 0.0003s
attr unit s
par RSUExampleScenario.node[2].nic.mac1609_4 txPower 20mW
attr unit mW
par RSUExampleScenario.node[2].nic.mac1609_4 queueSize 0
par RSUExampleScenario.node[2].nic.mac1609_4 dot11RTSThreshold 12000bit
attr unit bit
par RSUExampleScenario.node[2].nic.mac1609_4 dot11ShortRetryLimit 7
par RSUExampleScenario.node[2].nic.mac1609_4 dot11LongRetryLimit 4
par RSUExampleScenario.node[2].nic.mac1609_4 ackLength 112bit
attr unit bit
par RSUExampleScenario.node[2].nic.mac1609_4 useAcks false
par RSUExampleScenario.node[2].nic.mac1609_4 frameErrorRate 0
par RSUExampleScenario.node[2].nic.mac1609_4 ackErrorRate 0
scalar RSUExampleScenario.node[2].nic.mac1609_4 ReceivedUnicastPackets 0
scalar RSUExampleScenario.node[2].nic.mac1609_4 ReceivedBroadcasts 0
scalar RSUExampleScenario.node[2].nic.mac1609_4 SentPackets 0
scalar RSUExampleScenario.node[2].nic.mac1609_4 SentAcknowledgements 0
scalar RSUExampleScenario.node[2].nic.mac1609_4 RetriesExceeded 0
scalar RSUExampleScenario.node[2].nic.mac1609_4 SNIRLostPackets 0
scalar RSUExampleScenario.node[2].nic.mac1609_4 RXTXLostPackets 0
scalar RSUExampleScenario.node[2].nic.mac1609_4 TotalLostPackets 0
scalar RSUExampleScenario.node[2].nic.mac1609_4 DroppedPacketsInMac 0
scalar RSUExampleScenario.node[2].nic.mac1609_4 TooLittleTime 0
scalar RSUExampleScenario.node[2].nic.mac1609_4 TimesIntoBackoff 0
scalar RSUExampleScenario.node[2].nic.mac1609_4 SlotsBackoff 0
scalar RSUExampleScenario.node[2].nic.mac1609_4 NumInternalContention 0
scalar RSUExampleScenario.node[2].nic.mac1609_4 totalBusyTime 0
scalar RSUExampleScenario.node[2].nic.mac1609_4 retriesExceeded:count 0
attr recordingmode count
attr source org_car2x_veins_modules_mac_sigRetriesExceeded
scalar RSUExampleScenario.node[2].nic.mac1609_4 sentAcks:count 0
attr recordingmode count
attr source org_car2x_veins_modules_mac_sigSentAck
scalar RSUExampleScenario.node[2].nic.mac1609_4 sentPackets:count 0
attr recordingmode count
attr source org_car2x_veins_modules_mac_sigSentPacket
scalar RSUExampleScenario.node[2].nic.mac1609_4 collisions:count 0
attr recordingmode count
attr source org_car2x_veins_modules_mac_sigCollision
scalar RSUExampleScenario.node[2].nic.mac1609_4 channelBusy:timeavg 0
attr recordingmode timeavg
attr source org_car2x_veins_modules_mac_sigChannelBusy
par RSUExampleScenario.node[2].nic typename "\"org.car2x.veins.modules.nic.Nic80211p\""
par RSUExampleScenario.node[2].nic connectionManagerName "\"connectionManager\""
par RSUExampleScenario.node[2].veinsmobility typename "\"org.car2x.veins.modules.mobility.traci.TraCIMobility\""
par RSUExampleScenario.node[2].veinsmobility notAffectedByHostState true
par RSUExampleScenario.node[2].veinsmobility x 0
par RSUExampleScenario.node[2].veinsmobility y 0
par RSUExampleScenario.node[2].veinsmobility z 0
par RSUExampleScenario.node[2].veinsmobility xOrientation 1
par RSUExampleScenario.node[2].veinsmobility yOrientation 0
par RSUExampleScenario.node[2].veinsmobility zOrientation 0
par RSUExampleScenario.node[2].veinsmobility hostPositionOffset 0m
attr unit m
par RSUExampleScenario.node[2].veinsmobility setHostSpeed false
par RSUExampleScenario.node[2].veinsmobility accidentCount 0
par RSUExampleScenario.node[2].veinsmobility accidentStart 38.1797s
attr unit s
par RSUExampleScenario.node[2].veinsmobility accidentDuration "uniform(30s, 60s)"
attr unit s
par RSUExampleScenario.node[2].veinsmobility accidentInterval "uniform(30s, 60s)"
attr unit s
scalar RSUExampleScenario.node[2].veinsmobility startTime 3
scalar RSUExampleScenario.node[2].veinsmobility totalTime 66
scalar RSUExampleScenario.node[2].veinsmobility stopTime 70
scalar RSUExampleScenario.node[2].veinsmobility minSpeed 2.0537621400552
scalar RSUExampleScenario.node[2].veinsmobility maxSpeed 24.24316639099
scalar RSUExampleScenario.node[2].veinsmobility totalDistance 695.84442886715
scalar RSUExampleScenario.node[2].veinsmobility totalCO2Emission 309.10697005308
par RSUExampleScenario.node[2] typename "\"org.car2x.veins.nodes.Car\""
par RSUExampleScenario.node[2] applType "\"TraCIDemo11p\""
par RSUExampleScenario.node[2] nicType "\"Nic80211p\""
par RSUExampleScenario.node[2] veinsmobilityType "\"org.car2x.veins.modules.mobility.traci.TraCIMobility\""
par RSUExampleScenario.node[60].appl typename "\"org.car2x.veins.modules.application.traci.TraCIDemo11p\""
par RSUExampleScenario.node[60].appl headerLength 80bit
attr unit bit
par RSUExampleScenario.node[60].appl sendBeacons false
par RSUExampleScenario.node[60].appl beaconLengthBits 256bit
attr unit bit
par RSUExampleScenario.node[60].appl beaconUserPriority 7
par RSUExampleScenario.node[60].appl beaconInterval 1s
attr unit s
par RSUExampleScenario.node[60].appl dataLengthBits 1024bit
attr unit bit
par RSUExampleScenario.node[60].appl dataOnSch false
par RSUExampleScenario.node[60].appl dataUserPriority 7
par RSUExampleScenario.node[60].appl avoidBeaconSynchronization true
par RSUExampleScenario.node[60].appl sendWSA false
par RSUExampleScenario.node[60].appl wsaLengthBits 250bit
attr unit bit
par RSUExampleScenario.node[60].appl wsaInterval 1s
attr unit s
scalar RSUExampleScenario.node[60].appl generatedWSMs 0
scalar RSUExampleScenario.node[60].appl receivedWSMs 0
scalar RSUExampleScenario.node[60].appl generatedBSMs 0
scalar RSUExampleScenario.node[60].appl receivedBSMs 0
scalar RSUExampleScenario.node[60].appl generatedWSAs 0
scalar RSUExampleScenario.node[60].appl receivedWSAs 0
par RSUExampleScenario.node[60].nic.phy80211p typename "\"org.car2x.veins.modules.phy.PhyLayer80211p\""
par RSUExampleScenario.node[60].nic.phy80211p recordStats false
par RSUExampleScenario.node[60].nic.phy80211p usePropagationDelay true
par RSUExampleScenario.node[60].nic.phy80211p noiseFloor -98dBm
attr unit dBm
par RSUExampleScenario.node[60].nic.phy80211p useNoiseFloor true
par RSUExampleScenario.node[60].nic.phy80211p antenna "<Antenna type=\"SampledAntenna1D\" id=\"monopole\">...</Antenna> at C:/Graduation_Project/02_Simulation_Workspace/veins/examples/veins/\\antenna.xml:35"
par RSUExampleScenario.node[60].nic.phy80211p antennaOffsetX 0m
attr unit m
par RSUExampleScenario.node[60].nic.phy80211p antennaOffsetY 0m
attr unit m
par RSUExampleScenario.node[60].nic.phy80211p antennaOffsetZ 1.895m
attr unit m
par RSUExampleScenario.node[60].nic.phy80211p antennaOffsetYaw 0rad
attr unit rad
par RSUExampleScenario.node[60].nic.phy80211p analogueModels "<root>...</root> at C:/Graduation_Project/02_Simulation_Workspace/veins/examples/veins/\\config.xml:34"
par RSUExampleScenario.node[60].nic.phy80211p decider "<root>...</root> at C:/Graduation_Project/02_Simulation_Workspace/veins/examples/veins/\\config.xml:34"
par RSUExampleScenario.node[60].nic.phy80211p minPowerLevel -110dBm
attr unit dBm
par RSUExampleScenario.node[60].nic.phy80211p timeRXToTX 0s
attr unit s
par RSUExampleScenario.node[60].nic.phy80211p timeRXToSleep 0s
attr unit s
par RSUExampleScenario.node[60].nic.phy80211p timeTXToRX 0s
attr unit s
par RSUExampleScenario.node[60].nic.phy80211p timeTXToSleep 0s
attr unit s
par RSUExampleScenario.node[60].nic.phy80211p timeSleepToRX 0s
attr unit s
par RSUExampleScenario.node[60].nic.phy80211p timeSleepToTX 0s
attr unit s
par RSUExampleScenario.node[60].nic.phy80211p initialRadioState 0
par RSUExampleScenario.node[60].nic.phy80211p radioMinAtt 1
par RSUExampleScenario.node[60].nic.phy80211p radioMaxAtt 0
par RSUExampleScenario.node[60].nic.phy80211p nbRadioChannels 1
par RSUExampleScenario.node[60].nic.phy80211p initialRadioChannel 0
par RSUExampleScenario.node[60].nic.phy80211p ccaThreshold -65dBm
attr unit dBm
par RSUExampleScenario.node[60].nic.phy80211p collectCollisionStatistics false
par RSUExampleScenario.node[60].nic.phy80211p allowTxDuringRx false
scalar RSUExampleScenario.node[60].nic.phy80211p busyTime 0
par RSUExampleScenario.node[60].nic.mac1609_4 typename "\"org.car2x.veins.modules.mac.ieee80211p.Mac1609_4\""
par RSUExampleScenario.node[60].nic.mac1609_4 notAffectedByHostState false
par RSUExampleScenario.node[60].nic.mac1609_4 headerLength 0bit
attr unit bit
par RSUExampleScenario.node[60].nic.mac1609_4 address "\"auto\""
par RSUExampleScenario.node[60].nic.mac1609_4 useServiceChannel false
par RSUExampleScenario.node[60].nic.mac1609_4 serviceChannel 1
par RSUExampleScenario.node[60].nic.mac1609_4 bitrate 6000000bps
attr unit bps
par RSUExampleScenario.node[60].nic.mac1609_4 syncOffset 0.0003s
attr unit s
par RSUExampleScenario.node[60].nic.mac1609_4 txPower 20mW
attr unit mW
par RSUExampleScenario.node[60].nic.mac1609_4 queueSize 0
par RSUExampleScenario.node[60].nic.mac1609_4 dot11RTSThreshold 12000bit
attr unit bit
par RSUExampleScenario.node[60].nic.mac1609_4 dot11ShortRetryLimit 7
par RSUExampleScenario.node[60].nic.mac1609_4 dot11LongRetryLimit 4
par RSUExampleScenario.node[60].nic.mac1609_4 ackLength 112bit
attr unit bit
par RSUExampleScenario.node[60].nic.mac1609_4 useAcks false
par RSUExampleScenario.node[60].nic.mac1609_4 frameErrorRate 0
par RSUExampleScenario.node[60].nic.mac1609_4 ackErrorRate 0
scalar RSUExampleScenario.node[60].nic.mac1609_4 ReceivedUnicastPackets 0
scalar RSUExampleScenario.node[60].nic.mac1609_4 ReceivedBroadcasts 0
scalar RSUExampleScenario.node[60].nic.mac1609_4 SentPackets 0
scalar RSUExampleScenario.node[60].nic.mac1609_4 SentAcknowledgements 0
scalar RSUExampleScenario.node[60].nic.mac1609_4 RetriesExceeded 0
scalar RSUExampleScenario.node[60].nic.mac1609_4 SNIRLostPackets 0
scalar RSUExampleScenario.node[60].nic.mac1609_4 RXTXLostPackets 0
scalar RSUExampleScenario.node[60].nic.mac1609_4 TotalLostPackets 0
scalar RSUExampleScenario.node[60].nic.mac1609_4 DroppedPacketsInMac 0
scalar RSUExampleScenario.node[60].nic.mac1609_4 TooLittleTime 0
scalar RSUExampleScenario.node[60].nic.mac1609_4 TimesIntoBackoff 0
scalar RSUExampleScenario.node[60].nic.mac1609_4 SlotsBackoff 0
scalar RSUExampleScenario.node[60].nic.mac1609_4 NumInternalContention 0
scalar RSUExampleScenario.node[60].nic.mac1609_4 totalBusyTime 0
scalar RSUExampleScenario.node[60].nic.mac1609_4 retriesExceeded:count 0
attr recordingmode count
attr source org_car2x_veins_modules_mac_sigRetriesExceeded
scalar RSUExampleScenario.node[60].nic.mac1609_4 sentAcks:count 0
attr recordingmode count
attr source org_car2x_veins_modules_mac_sigSentAck
scalar RSUExampleScenario.node[60].nic.mac1609_4 sentPackets:count 0
attr recordingmode count
attr source org_car2x_veins_modules_mac_sigSentPacket
scalar RSUExampleScenario.node[60].nic.mac1609_4 collisions:count 0
attr recordingmode count
attr source org_car2x_veins_modules_mac_sigCollision
scalar RSUExampleScenario.node[60].nic.mac1609_4 channelBusy:timeavg 0
attr recordingmode timeavg
attr source org_car2x_veins_modules_mac_sigChannelBusy
par RSUExampleScenario.node[60].nic typename "\"org.car2x.veins.modules.nic.Nic80211p\""
par RSUExampleScenario.node[60].nic connectionManagerName "\"connectionManager\""
par RSUExampleScenario.node[60].veinsmobility typename "\"org.car2x.veins.modules.mobility.traci.TraCIMobility\""
par RSUExampleScenario.node[60].veinsmobility notAffectedByHostState true
par RSUExampleScenario.node[60].veinsmobility x 0
par RSUExampleScenario.node[60].veinsmobility y 0
par RSUExampleScenario.node[60].veinsmobility z 0
par RSUExampleScenario.node[60].veinsmobility xOrientation 1
par RSUExampleScenario.node[60].veinsmobility yOrientation 0
par RSUExampleScenario.node[60].veinsmobility zOrientation 0
par RSUExampleScenario.node[60].veinsmobility hostPositionOffset 0m
attr unit m
par RSUExampleScenario.node[60].veinsmobility setHostSpeed false
par RSUExampleScenario.node[60].veinsmobility accidentCount 1
par RSUExampleScenario.node[60].veinsmobility accidentStart 73s
attr unit s
par RSUExampleScenario.node[60].veinsmobility accidentDuration 50s
attr unit s
par RSUExampleScenario.node[60].veinsmobility accidentInterval "uniform(30s, 60s)"
attr unit s
scalar RSUExampleScenario.node[60].veinsmobility startTime 61
scalar RSUExampleScenario.node[60].veinsmobility totalTime 13
scalar RSUExampleScenario.node[60].veinsmobility stopTime 75
scalar RSUExampleScenario.node[60].veinsmobility minSpeed 2.36755074088
scalar RSUExampleScenario.node[60].veinsmobility maxSpeed 10.885811643093
scalar RSUExampleScenario.node[60].veinsmobility totalDistance 80.913867518144
scalar RSUExampleScenario.node[60].veinsmobility totalCO2Emission 38.193938874503
par RSUExampleScenario.node[60] typename "\"org.car2x.veins.nodes.Car\""
par RSUExampleScenario.node[60] applType "\"TraCIDemo11p\""
par RSUExampleScenario.node[60] nicType "\"Nic80211p\""
par RSUExampleScenario.node[60] veinsmobilityType "\"org.car2x.veins.modules.mobility.traci.TraCIMobility\""
par RSUExampleScenario.node[33].appl typename "\"org.car2x.veins.modules.application.traci.TraCIDemo11p\""
par RSUExampleScenario.node[33].appl headerLength 80bit
attr unit bit
par RSUExampleScenario.node[33].appl sendBeacons false
par RSUExampleScenario.node[33].appl beaconLengthBits 256bit
attr unit bit
par RSUExampleScenario.node[33].appl beaconUserPriority 7
par RSUExampleScenario.node[33].appl beaconInterval 1s
attr unit s
par RSUExampleScenario.node[33].appl dataLengthBits 1024bit
attr unit bit
par RSUExampleScenario.node[33].appl dataOnSch false
par RSUExampleScenario.node[33].appl dataUserPriority 7
par RSUExampleScenario.node[33].appl avoidBeaconSynchronization true
par RSUExampleScenario.node[33].appl sendWSA false
par RSUExampleScenario.node[33].appl wsaLengthBits 250bit
attr unit bit
par RSUExampleScenario.node[33].appl wsaInterval 1s
attr unit s
scalar RSUExampleScenario.node[33].appl generatedWSMs 0
scalar RSUExampleScenario.node[33].appl receivedWSMs 0
scalar RSUExampleScenario.node[33].appl generatedBSMs 0
scalar RSUExampleScenario.node[33].appl receivedBSMs 0
scalar RSUExampleScenario.node[33].appl generatedWSAs 0
scalar RSUExampleScenario.node[33].appl receivedWSAs 0
par RSUExampleScenario.node[33].nic.phy80211p typename "\"org.car2x.veins.modules.phy.PhyLayer80211p\""
par RSUExampleScenario.node[33].nic.phy80211p recordStats false
par RSUExampleScenario.node[33].nic.phy80211p usePropagationDelay true
par RSUExampleScenario.node[33].nic.phy80211p noiseFloor -98dBm
attr unit dBm
par RSUExampleScenario.node[33].nic.phy80211p useNoiseFloor true
par RSUExampleScenario.node[33].nic.phy80211p antenna "<Antenna type=\"SampledAntenna1D\" id=\"monopole\">...</Antenna> at C:/Graduation_Project/02_Simulation_Workspace/veins/examples/veins/\\antenna.xml:35"
par RSUExampleScenario.node[33].nic.phy80211p antennaOffsetX 0m
attr unit m
par RSUExampleScenario.node[33].nic.phy80211p antennaOffsetY 0m
attr unit m
par RSUExampleScenario.node[33].nic.phy80211p antennaOffsetZ 1.895m
attr unit m
par RSUExampleScenario.node[33].nic.phy80211p antennaOffsetYaw 0rad
attr unit rad
par RSUExampleScenario.node[33].nic.phy80211p analogueModels "<root>...</root> at C:/Graduation_Project/02_Simulation_Workspace/veins/examples/veins/\\config.xml:34"
par RSUExampleScenario.node[33].nic.phy80211p decider "<root>...</root> at C:/Graduation_Project/02_Simulation_Workspace/veins/examples/veins/\\config.xml:34"
par RSUExampleScenario.node[33].nic.phy80211p minPowerLevel -110dBm
attr unit dBm
par RSUExampleScenario.node[33].nic.phy80211p timeRXToTX 0s
attr unit s
par RSUExampleScenario.node[33].nic.phy80211p timeRXToSleep 0s
attr unit s
par RSUExampleScenario.node[33].nic.phy80211p timeTXToRX 0s
attr unit s
par RSUExampleScenario.node[33].nic.phy80211p timeTXToSleep 0s
attr unit s
par RSUExampleScenario.node[33].nic.phy80211p timeSleepToRX 0s
attr unit s
par RSUExampleScenario.node[33].nic.phy80211p timeSleepToTX 0s
attr unit s
par RSUExampleScenario.node[33].nic.phy80211p initialRadioState 0
par RSUExampleScenario.node[33].nic.phy80211p radioMinAtt 1
par RSUExampleScenario.node[33].nic.phy80211p radioMaxAtt 0
par RSUExampleScenario.node[33].nic.phy80211p nbRadioChannels 1
par RSUExampleScenario.node[33].nic.phy80211p initialRadioChannel 0
par RSUExampleScenario.node[33].nic.phy80211p ccaThreshold -65dBm
attr unit dBm
par RSUExampleScenario.node[33].nic.phy80211p collectCollisionStatistics false
par RSUExampleScenario.node[33].nic.phy80211p allowTxDuringRx false
scalar RSUExampleScenario.node[33].nic.phy80211p busyTime 0
par RSUExampleScenario.node[33].nic.mac1609_4 typename "\"org.car2x.veins.modules.mac.ieee80211p.Mac1609_4\""
par RSUExampleScenario.node[33].nic.mac1609_4 notAffectedByHostState false
par RSUExampleScenario.node[33].nic.mac1609_4 headerLength 0bit
attr unit bit
par RSUExampleScenario.node[33].nic.mac1609_4 address "\"auto\""
par RSUExampleScenario.node[33].nic.mac1609_4 useServiceChannel false
par RSUExampleScenario.node[33].nic.mac1609_4 serviceChannel 1
par RSUExampleScenario.node[33].nic.mac1609_4 bitrate 6000000bps
attr unit bps
par RSUExampleScenario.node[33].nic.mac1609_4 syncOffset 0.0003s
attr unit s
par RSUExampleScenario.node[33].nic.mac1609_4 txPower 20mW
attr unit mW
par RSUExampleScenario.node[33].nic.mac1609_4 queueSize 0
par RSUExampleScenario.node[33].nic.mac1609_4 dot11RTSThreshold 12000bit
attr unit bit
par RSUExampleScenario.node[33].nic.mac1609_4 dot11ShortRetryLimit 7
par RSUExampleScenario.node[33].nic.mac1609_4 dot11LongRetryLimit 4
par RSUExampleScenario.node[33].nic.mac1609_4 ackLength 112bit
attr unit bit
par RSUExampleScenario.node[33].nic.mac1609_4 useAcks false
par RSUExampleScenario.node[33].nic.mac1609_4 frameErrorRate 0
par RSUExampleScenario.node[33].nic.mac1609_4 ackErrorRate 0
scalar RSUExampleScenario.node[33].nic.mac1609_4 ReceivedUnicastPackets 0
scalar RSUExampleScenario.node[33].nic.mac1609_4 ReceivedBroadcasts 0
scalar RSUExampleScenario.node[33].nic.mac1609_4 SentPackets 0
scalar RSUExampleScenario.node[33].nic.mac1609_4 SentAcknowledgements 0
scalar RSUExampleScenario.node[33].nic.mac1609_4 RetriesExceeded 0
scalar RSUExampleScenario.node[33].nic.mac1609_4 SNIRLostPackets 0
scalar RSUExampleScenario.node[33].nic.mac1609_4 RXTXLostPackets 0
scalar RSUExampleScenario.node[33].nic.mac1609_4 TotalLostPackets 0
scalar RSUExampleScenario.node[33].nic.mac1609_4 DroppedPacketsInMac 0
scalar RSUExampleScenario.node[33].nic.mac1609_4 TooLittleTime 0
scalar RSUExampleScenario.node[33].nic.mac1609_4 TimesIntoBackoff 0
scalar RSUExampleScenario.node[33].nic.mac1609_4 SlotsBackoff 0
scalar RSUExampleScenario.node[33].nic.mac1609_4 NumInternalContention 0
scalar RSUExampleScenario.node[33].nic.mac1609_4 totalBusyTime 0
scalar RSUExampleScenario.node[33].nic.mac1609_4 retriesExceeded:count 0
attr recordingmode count
attr source org_car2x_veins_modules_mac_sigRetriesExceeded
scalar RSUExampleScenario.node[33].nic.mac1609_4 sentAcks:count 0
attr recordingmode count
attr source org_car2x_veins_modules_mac_sigSentAck
scalar RSUExampleScenario.node[33].nic.mac1609_4 sentPackets:count 0
attr recordingmode count
attr source org_car2x_veins_modules_mac_sigSentPacket
scalar RSUExampleScenario.node[33].nic.mac1609_4 collisions:count 0
attr recordingmode count
attr source org_car2x_veins_modules_mac_sigCollision
scalar RSUExampleScenario.node[33].nic.mac1609_4 channelBusy:timeavg 0
attr recordingmode timeavg
attr source org_car2x_veins_modules_mac_sigChannelBusy
par RSUExampleScenario.node[33].nic typename "\"org.car2x.veins.modules.nic.Nic80211p\""
par RSUExampleScenario.node[33].nic connectionManagerName "\"connectionManager\""
par RSUExampleScenario.node[33].veinsmobility typename "\"org.car2x.veins.modules.mobility.traci.TraCIMobility\""
par RSUExampleScenario.node[33].veinsmobility notAffectedByHostState true
par RSUExampleScenario.node[33].veinsmobility x 0
par RSUExampleScenario.node[33].veinsmobility y 0
par RSUExampleScenario.node[33].veinsmobility z 0
par RSUExampleScenario.node[33].veinsmobility xOrientation 1
par RSUExampleScenario.node[33].veinsmobility yOrientation 0
par RSUExampleScenario.node[33].veinsmobility zOrientation 0
par RSUExampleScenario.node[33].veinsmobility hostPositionOffset 0m
attr unit m
par RSUExampleScenario.node[33].veinsmobility setHostSpeed false
par RSUExampleScenario.node[33].veinsmobility accidentCount 0
par RSUExampleScenario.node[33].veinsmobility accidentStart 55.9531s
attr unit s
par RSUExampleScenario.node[33].veinsmobility accidentDuration "uniform(30s, 60s)"
attr unit s
par RSUExampleScenario.node[33].veinsmobility accidentInterval "uniform(30s, 60s)"
attr unit s
scalar RSUExampleScenario.node[33].veinsmobility startTime 34
scalar RSUExampleScenario.node[33].veinsmobility totalTime 48
scalar RSUExampleScenario.node[33].veinsmobility stopTime 83
scalar RSUExampleScenario.node[33].veinsmobility minSpeed 1.9540803179145
scalar RSUExampleScenario.node[33].veinsmobility maxSpeed 13.64539780369
scalar RSUExampleScenario.node[33].veinsmobility totalDistance 532.4176852414
scalar RSUExampleScenario.node[33].veinsmobility totalCO2Emission 147.75371802424
par RSUExampleScenario.node[33] typename "\"org.car2x.veins.nodes.Car\""
par RSUExampleScenario.node[33] applType "\"TraCIDemo11p\""
par RSUExampleScenario.node[33] nicType "\"Nic80211p\""
par RSUExampleScenario.node[33] veinsmobilityType "\"org.car2x.veins.modules.mobility.traci.TraCIMobility\""
par RSUExampleScenario.obstacles typename "\"org.car2x.veins.modules.obstacle.ObstacleControl\""
par RSUExampleScenario.obstacles obstacles "<obstacles/> at content:1"
par RSUExampleScenario.obstacles gridCellSize 250
par RSUExampleScenario.annotations typename "\"org.car2x.veins.modules.world.annotations.AnnotationManager\""
par RSUExampleScenario.annotations draw false
par RSUExampleScenario.annotations annotations "<annotations/> at content:1"
par RSUExampleScenario.connectionManager typename "\"org.car2x.veins.base.connectionManager.ConnectionManager\""
par RSUExampleScenario.connectionManager sendDirect true
par RSUExampleScenario.connectionManager maxInterfDist 1000m
attr unit m
par RSUExampleScenario.connectionManager drawMaxIntfDist false
par RSUExampleScenario.world typename "\"org.car2x.veins.base.modules.BaseWorldUtility\""
par RSUExampleScenario.world playgroundSizeX 5000m
attr unit m
par RSUExampleScenario.world playgroundSizeY 5000m
attr unit m
par RSUExampleScenario.world playgroundSizeZ 50m
attr unit m
par RSUExampleScenario.world useTorus false
par RSUExampleScenario.world use2D false
par RSUExampleScenario.manager typename "\"org.car2x.veins.modules.mobility.traci.TraCIScenarioManagerLaunchd\""
par RSUExampleScenario.manager connectAt 0s
attr unit s
par RSUExampleScenario.manager firstStepAt -1s
attr unit s
par RSUExampleScenario.manager updateInterval 1s
attr unit s
par RSUExampleScenario.manager moduleType "\"org.car2x.veins.nodes.Car\""
par RSUExampleScenario.manager moduleName "\"node\""
par RSUExampleScenario.manager moduleDisplayString "\"*='i=veins/node/car;is=vs'\""
par RSUExampleScenario.manager trafficLightModuleType "\"org.car2x.veins.nodes.TrafficLight\""
par RSUExampleScenario.manager trafficLightModuleName "\"tls\""
par RSUExampleScenario.manager trafficLightFilter "\"\""
par RSUExampleScenario.manager trafficLightModuleDisplayString "\"i=veins/node/trafficlight;is=vs\""
par RSUExampleScenario.manager host "\"localhost\""
par RSUExampleScenario.manager port 9999
par RSUExampleScenario.manager seed -1
par RSUExampleScenario.manager autoShutdown true
par RSUExampleScenario.manager margin 25
par RSUExampleScenario.manager roiRoads "\"\""
par RSUExampleScenario.manager roiRects "\"\""
par RSUExampleScenario.manager penetrationRate 1
par RSUExampleScenario.manager ignoreGuiCommands false
par RSUExampleScenario.manager order -1
par RSUExampleScenario.manager ignoreUnknownSubscriptionResults false
par RSUExampleScenario.manager launchConfig "<launch>...</launch> at C:/Graduation_Project/02_Simulation_Workspace/veins/examples/veins/\\homs.launchd.xml:35"
scalar RSUExampleScenario.manager roiArea 0
par RSUExampleScenario.roadsCanvasVisualizer typename "\"org.car2x.veins.visualizer.roads.RoadsCanvasVisualizer\""
par RSUExampleScenario.roadsCanvasVisualizer enabled true
par RSUExampleScenario.roadsCanvasVisualizer lineZIndex -1
par RSUExampleScenario.roadsCanvasVisualizer lineColor "\"firebrick4\""
par RSUExampleScenario.roadsCanvasVisualizer lineWidth 1
par RSUExampleScenario.roadsCanvasVisualizer lineWidthZoom false
par RSUExampleScenario.node[0].appl typename "\"org.car2x.veins.modules.application.traci.TraCIDemo11p\""
par RSUExampleScenario.node[0].appl headerLength 80bit
attr unit bit
par RSUExampleScenario.node[0].appl sendBeacons false
par RSUExampleScenario.node[0].appl beaconLengthBits 256bit
attr unit bit
par RSUExampleScenario.node[0].appl beaconUserPriority 7
par RSUExampleScenario.node[0].appl beaconInterval 1s
attr unit s
par RSUExampleScenario.node[0].appl dataLengthBits 1024bit
attr unit bit
par RSUExampleScenario.node[0].appl dataOnSch false
par RSUExampleScenario.node[0].appl dataUserPriority 7
par RSUExampleScenario.node[0].appl avoidBeaconSynchronization true
par RSUExampleScenario.node[0].appl sendWSA false
par RSUExampleScenario.node[0].appl wsaLengthBits 250bit
attr unit bit
par RSUExampleScenario.node[0].appl wsaInterval 1s
attr unit s
scalar RSUExampleScenario.node[0].appl generatedWSMs 1
scalar RSUExampleScenario.node[0].appl receivedWSMs 0
scalar RSUExampleScenario.node[0].appl generatedBSMs 0
scalar RSUExampleScenario.node[0].appl receivedBSMs 0
scalar RSUExampleScenario.node[0].appl generatedWSAs 0
scalar RSUExampleScenario.node[0].appl receivedWSAs 0
par RSUExampleScenario.node[0].nic.phy80211p typename "\"org.car2x.veins.modules.phy.PhyLayer80211p\""
par RSUExampleScenario.node[0].nic.phy80211p recordStats false
par RSUExampleScenario.node[0].nic.phy80211p usePropagationDelay true
par RSUExampleScenario.node[0].nic.phy80211p noiseFloor -98dBm
attr unit dBm
par RSUExampleScenario.node[0].nic.phy80211p useNoiseFloor true
par RSUExampleScenario.node[0].nic.phy80211p antenna "<Antenna type=\"SampledAntenna1D\" id=\"monopole\">...</Antenna> at C:/Graduation_Project/02_Simulation_Workspace/veins/examples/veins/\\antenna.xml:35"
par RSUExampleScenario.node[0].nic.phy80211p antennaOffsetX 0m
attr unit m
par RSUExampleScenario.node[0].nic.phy80211p antennaOffsetY 0m
attr unit m
par RSUExampleScenario.node[0].nic.phy80211p antennaOffsetZ 1.895m
attr unit m
par RSUExampleScenario.node[0].nic.phy80211p antennaOffsetYaw 0rad
attr unit rad
par RSUExampleScenario.node[0].nic.phy80211p analogueModels "<root>...</root> at C:/Graduation_Project/02_Simulation_Workspace/veins/examples/veins/\\config.xml:34"
par RSUExampleScenario.node[0].nic.phy80211p decider "<root>...</root> at C:/Graduation_Project/02_Simulation_Workspace/veins/examples/veins/\\config.xml:34"
par RSUExampleScenario.node[0].nic.phy80211p minPowerLevel -110dBm
attr unit dBm
par RSUExampleScenario.node[0].nic.phy80211p timeRXToTX 0s
attr unit s
par RSUExampleScenario.node[0].nic.phy80211p timeRXToSleep 0s
attr unit s
par RSUExampleScenario.node[0].nic.phy80211p timeTXToRX 0s
attr unit s
par RSUExampleScenario.node[0].nic.phy80211p timeTXToSleep 0s
attr unit s
par RSUExampleScenario.node[0].nic.phy80211p timeSleepToRX 0s
attr unit s
par RSUExampleScenario.node[0].nic.phy80211p timeSleepToTX 0s
attr unit s
par RSUExampleScenario.node[0].nic.phy80211p initialRadioState 0
par RSUExampleScenario.node[0].nic.phy80211p radioMinAtt 1
par RSUExampleScenario.node[0].nic.phy80211p radioMaxAtt 0
par RSUExampleScenario.node[0].nic.phy80211p nbRadioChannels 1
par RSUExampleScenario.node[0].nic.phy80211p initialRadioChannel 0
par RSUExampleScenario.node[0].nic.phy80211p ccaThreshold -65dBm
attr unit dBm
par RSUExampleScenario.node[0].nic.phy80211p collectCollisionStatistics false
par RSUExampleScenario.node[0].nic.phy80211p allowTxDuringRx false
scalar RSUExampleScenario.node[0].nic.phy80211p busyTime 0
par RSUExampleScenario.node[0].nic.mac1609_4 typename "\"org.car2x.veins.modules.mac.ieee80211p.Mac1609_4\""
par RSUExampleScenario.node[0].nic.mac1609_4 notAffectedByHostState false
par RSUExampleScenario.node[0].nic.mac1609_4 headerLength 0bit
attr unit bit
par RSUExampleScenario.node[0].nic.mac1609_4 address "\"auto\""
par RSUExampleScenario.node[0].nic.mac1609_4 useServiceChannel false
par RSUExampleScenario.node[0].nic.mac1609_4 serviceChannel 1
par RSUExampleScenario.node[0].nic.mac1609_4 bitrate 6000000bps
attr unit bps
par RSUExampleScenario.node[0].nic.mac1609_4 syncOffset 0.0003s
attr unit s
par RSUExampleScenario.node[0].nic.mac1609_4 txPower 20mW
attr unit mW
par RSUExampleScenario.node[0].nic.mac1609_4 queueSize 0
par RSUExampleScenario.node[0].nic.mac1609_4 dot11RTSThreshold 12000bit
attr unit bit
par RSUExampleScenario.node[0].nic.mac1609_4 dot11ShortRetryLimit 7
par RSUExampleScenario.node[0].nic.mac1609_4 dot11LongRetryLimit 4
par RSUExampleScenario.node[0].nic.mac1609_4 ackLength 112bit
attr unit bit
par RSUExampleScenario.node[0].nic.mac1609_4 useAcks false
par RSUExampleScenario.node[0].nic.mac1609_4 frameErrorRate 0
par RSUExampleScenario.node[0].nic.mac1609_4 ackErrorRate 0
scalar RSUExampleScenario.node[0].nic.mac1609_4 ReceivedUnicastPackets 0
scalar RSUExampleScenario.node[0].nic.mac1609_4 ReceivedBroadcasts 0
scalar RSUExampleScenario.node[0].nic.mac1609_4 SentPackets 1
scalar RSUExampleScenario.node[0].nic.mac1609_4 SentAcknowledgements 0
scalar RSUExampleScenario.node[0].nic.mac1609_4 RetriesExceeded 0
scalar RSUExampleScenario.node[0].nic.mac1609_4 SNIRLostPackets 0
scalar RSUExampleScenario.node[0].nic.mac1609_4 RXTXLostPackets 0
scalar RSUExampleScenario.node[0].nic.mac1609_4 TotalLostPackets 0
scalar RSUExampleScenario.node[0].nic.mac1609_4 DroppedPacketsInMac 0
scalar RSUExampleScenario.node[0].nic.mac1609_4 TooLittleTime 0
scalar RSUExampleScenario.node[0].nic.mac1609_4 TimesIntoBackoff 0
scalar RSUExampleScenario.node[0].nic.mac1609_4 SlotsBackoff 0
scalar RSUExampleScenario.node[0].nic.mac1609_4 NumInternalContention 0
scalar RSUExampleScenario.node[0].nic.mac1609_4 totalBusyTime 0
scalar RSUExampleScenario.node[0].nic.mac1609_4 retriesExceeded:count 0
attr recordingmode count
attr source org_car2x_veins_modules_mac_sigRetriesExceeded
scalar RSUExampleScenario.node[0].nic.mac1609_4 sentAcks:count 0
attr recordingmode count
attr source org_car2x_veins_modules_mac_sigSentAck
scalar RSUExampleScenario.node[0].nic.mac1609_4 sentPackets:count 1
attr recordingmode count
attr source org_car2x_veins_modules_mac_sigSentPacket
scalar RSUExampleScenario.node[0].nic.mac1609_4 collisions:count 0
attr recordingmode count
attr source org_car2x_veins_modules_mac_sigCollision
scalar RSUExampleScenario.node[0].nic.mac1609_4 channelBusy:timeavg 0
attr recordingmode timeavg
attr source org_car2x_veins_modules_mac_sigChannelBusy
par RSUExampleScenario.node[0].nic typename "\"org.car2x.veins.modules.nic.Nic80211p\""
par RSUExampleScenario.node[0].nic connectionManagerName "\"connectionManager\""
par RSUExampleScenario.node[0].veinsmobility typename "\"org.car2x.veins.modules.mobility.traci.TraCIMobility\""
par RSUExampleScenario.node[0].veinsmobility notAffectedByHostState true
par RSUExampleScenario.node[0].veinsmobility x 0
par RSUExampleScenario.node[0].veinsmobility y 0
par RSUExampleScenario.node[0].veinsmobility z 0
par RSUExampleScenario.node[0].veinsmobility xOrientation 1
par RSUExampleScenario.node[0].veinsmobility yOrientation 0
par RSUExampleScenario.node[0].veinsmobility zOrientation 0
par RSUExampleScenario.node[0].veinsmobility hostPositionOffset 0m
attr unit m
par RSUExampleScenario.node[0].veinsmobility setHostSpeed false
par RSUExampleScenario.node[0].veinsmobility accidentCount 1
par RSUExampleScenario.node[0].veinsmobility accidentStart 73s
attr unit s
par RSUExampleScenario.node[0].veinsmobility accidentDuration 50s
attr unit s
par RSUExampleScenario.node[0].veinsmobility accidentInterval "uniform(30s, 60s)"
attr unit s
scalar RSUExampleScenario.node[0].veinsmobility startTime 1
scalar RSUExampleScenario.node[0].veinsmobility totalTime 84
scalar RSUExampleScenario.node[0].veinsmobility stopTime 85.000013
scalar RSUExampleScenario.node[0].veinsmobility minSpeed 0
scalar RSUExampleScenario.node[0].veinsmobility maxSpeed 15.311700357117
scalar RSUExampleScenario.node[0].veinsmobility totalDistance 692.7543448976
scalar RSUExampleScenario.node[0].veinsmobility totalCO2Emission 284.5953135146
par RSUExampleScenario.node[0] typename "\"org.car2x.veins.nodes.Car\""
par RSUExampleScenario.node[0] applType "\"TraCIDemo11p\""
par RSUExampleScenario.node[0] nicType "\"Nic80211p\""
par RSUExampleScenario.node[0] veinsmobilityType "\"org.car2x.veins.modules.mobility.traci.TraCIMobility\""
par RSUExampleScenario.node[1].appl typename "\"org.car2x.veins.modules.application.traci.TraCIDemo11p\""
par RSUExampleScenario.node[1].appl headerLength 80bit
attr unit bit
par RSUExampleScenario.node[1].appl sendBeacons false
par RSUExampleScenario.node[1].appl beaconLengthBits 256bit
attr unit bit
par RSUExampleScenario.node[1].appl beaconUserPriority 7
par RSUExampleScenario.node[1].appl beaconInterval 1s
attr unit s
par RSUExampleScenario.node[1].appl dataLengthBits 1024bit
attr unit bit
par RSUExampleScenario.node[1].appl dataOnSch false
par RSUExampleScenario.node[1].appl dataUserPriority 7
par RSUExampleScenario.node[1].appl avoidBeaconSynchronization true
par RSUExampleScenario.node[1].appl sendWSA false
par RSUExampleScenario.node[1].appl wsaLengthBits 250bit
attr unit bit
par RSUExampleScenario.node[1].appl wsaInterval 1s
attr unit s
scalar RSUExampleScenario.node[1].appl generatedWSMs 0
scalar RSUExampleScenario.node[1].appl receivedWSMs 0
scalar RSUExampleScenario.node[1].appl generatedBSMs 0
scalar RSUExampleScenario.node[1].appl receivedBSMs 0
scalar RSUExampleScenario.node[1].appl generatedWSAs 0
scalar RSUExampleScenario.node[1].appl receivedWSAs 0
par RSUExampleScenario.node[1].nic.phy80211p typename "\"org.car2x.veins.modules.phy.PhyLayer80211p\""
par RSUExampleScenario.node[1].nic.phy80211p recordStats false
par RSUExampleScenario.node[1].nic.phy80211p usePropagationDelay true
par RSUExampleScenario.node[1].nic.phy80211p noiseFloor -98dBm
attr unit dBm
par RSUExampleScenario.node[1].nic.phy80211p useNoiseFloor true
par RSUExampleScenario.node[1].nic.phy80211p antenna "<Antenna type=\"SampledAntenna1D\" id=\"monopole\">...</Antenna> at C:/Graduation_Project/02_Simulation_Workspace/veins/examples/veins/\\antenna.xml:35"
par RSUExampleScenario.node[1].nic.phy80211p antennaOffsetX 0m
attr unit m
par RSUExampleScenario.node[1].nic.phy80211p antennaOffsetY 0m
attr unit m
par RSUExampleScenario.node[1].nic.phy80211p antennaOffsetZ 1.895m
attr unit m
par RSUExampleScenario.node[1].nic.phy80211p antennaOffsetYaw 0rad
attr unit rad
par RSUExampleScenario.node[1].nic.phy80211p analogueModels "<root>...</root> at C:/Graduation_Project/02_Simulation_Workspace/veins/examples/veins/\\config.xml:34"
par RSUExampleScenario.node[1].nic.phy80211p decider "<root>...</root> at C:/Graduation_Project/02_Simulation_Workspace/veins/examples/veins/\\config.xml:34"
par RSUExampleScenario.node[1].nic.phy80211p minPowerLevel -110dBm
attr unit dBm
par RSUExampleScenario.node[1].nic.phy80211p timeRXToTX 0s
attr unit s
par RSUExampleScenario.node[1].nic.phy80211p timeRXToSleep 0s
attr unit s
par RSUExampleScenario.node[1].nic.phy80211p timeTXToRX 0s
attr unit s
par RSUExampleScenario.node[1].nic.phy80211p timeTXToSleep 0s
attr unit s
par RSUExampleScenario.node[1].nic.phy80211p timeSleepToRX 0s
attr unit s
par RSUExampleScenario.node[1].nic.phy80211p timeSleepToTX 0s
attr unit s
par RSUExampleScenario.node[1].nic.phy80211p initialRadioState 0
par RSUExampleScenario.node[1].nic.phy80211p radioMinAtt 1
par RSUExampleScenario.node[1].nic.phy80211p radioMaxAtt 0
par RSUExampleScenario.node[1].nic.phy80211p nbRadioChannels 1
par RSUExampleScenario.node[1].nic.phy80211p initialRadioChannel 0
par RSUExampleScenario.node[1].nic.phy80211p ccaThreshold -65dBm
attr unit dBm
par RSUExampleScenario.node[1].nic.phy80211p collectCollisionStatistics false
par RSUExampleScenario.node[1].nic.phy80211p allowTxDuringRx false
scalar RSUExampleScenario.node[1].nic.phy80211p busyTime 0
par RSUExampleScenario.node[1].nic.mac1609_4 typename "\"org.car2x.veins.modules.mac.ieee80211p.Mac1609_4\""
par RSUExampleScenario.node[1].nic.mac1609_4 notAffectedByHostState false
par RSUExampleScenario.node[1].nic.mac1609_4 headerLength 0bit
attr unit bit
par RSUExampleScenario.node[1].nic.mac1609_4 address "\"auto\""
par RSUExampleScenario.node[1].nic.mac1609_4 useServiceChannel false
par RSUExampleScenario.node[1].nic.mac1609_4 serviceChannel 1
par RSUExampleScenario.node[1].nic.mac1609_4 bitrate 6000000bps
attr unit bps
par RSUExampleScenario.node[1].nic.mac1609_4 syncOffset 0.0003s
attr unit s
par RSUExampleScenario.node[1].nic.mac1609_4 txPower 20mW
attr unit mW
par RSUExampleScenario.node[1].nic.mac1609_4 queueSize 0
par RSUExampleScenario.node[1].nic.mac1609_4 dot11RTSThreshold 12000bit
attr unit bit
par RSUExampleScenario.node[1].nic.mac1609_4 dot11ShortRetryLimit 7
par RSUExampleScenario.node[1].nic.mac1609_4 dot11LongRetryLimit 4
par RSUExampleScenario.node[1].nic.mac1609_4 ackLength 112bit
attr unit bit
par RSUExampleScenario.node[1].nic.mac1609_4 useAcks false
par RSUExampleScenario.node[1].nic.mac1609_4 frameErrorRate 0
par RSUExampleScenario.node[1].nic.mac1609_4 ackErrorRate 0
scalar RSUExampleScenario.node[1].nic.mac1609_4 ReceivedUnicastPackets 0
scalar RSUExampleScenario.node[1].nic.mac1609_4 ReceivedBroadcasts 0
scalar RSUExampleScenario.node[1].nic.mac1609_4 SentPackets 0
[...]
par RSUExampleScenario.node[84].nic.phy80211p initialRadioChannel 0
par RSUExampleScenario.node[84].nic.phy80211p ccaThreshold -65dBm
attr unit dBm
par RSUExampleScenario.node[84].nic.phy80211p collectCollisionStatistics false
par RSUExampleScenario.node[84].nic.phy80211p allowTxDuringRx false
scalar RSUExampleScenario.node[84].nic.phy80211p busyTime 0
par RSUExampleScenario.node[84].nic.mac1609_4 typename "\"org.car2x.veins.modules.mac.ieee80211p.Mac1609_4\""
par RSUExampleScenario.node[84].nic.mac1609_4 notAffectedByHostState false
par RSUExampleScenario.node[84].nic.mac1609_4 headerLength 0bit
attr unit bit
par RSUExampleScenario.node[84].nic.mac1609_4 address "\"auto\""
par RSUExampleScenario.node[84].nic.mac1609_4 useServiceChannel false
par RSUExampleScenario.node[84].nic.mac1609_4 serviceChannel 1
par RSUExampleScenario.node[84].nic.mac1609_4 bitrate 6000000bps
attr unit bps
par RSUExampleScenario.node[84].nic.mac1609_4 syncOffset 0.0003s
attr unit s
par RSUExampleScenario.node[84].nic.mac1609_4 txPower 20mW
attr unit mW
par RSUExampleScenario.node[84].nic.mac1609_4 queueSize 0
par RSUExampleScenario.node[84].nic.mac1609_4 dot11RTSThreshold 12000bit
attr unit bit
par RSUExampleScenario.node[84].nic.mac1609_4 dot11ShortRetryLimit 7
par RSUExampleScenario.node[84].nic.mac1609_4 dot11LongRetryLimit 4
par RSUExampleScenario.node[84].nic.mac1609_4 ackLength 112bit
attr unit bit
par RSUExampleScenario.node[84].nic.mac1609_4 useAcks false
par RSUExampleScenario.node[84].nic.mac1609_4 frameErrorRate 0
par RSUExampleScenario.node[84].nic.mac1609_4 ackErrorRate 0
scalar RSUExampleScenario.node[84].nic.mac1609_4 ReceivedUnicastPackets 0
scalar RSUExampleScenario.node[84].nic.mac1609_4 ReceivedBroadcasts 0
scalar RSUExampleScenario.node[84].nic.mac1609_4 SentPackets 0
scalar RSUExampleScenario.node[84].nic.mac1609_4 SentAcknowledgements 0
scalar RSUExampleScenario.node[84].nic.mac1609_4 RetriesExceeded 0
scalar RSUExampleScenario.node[84].nic.mac1609_4 SNIRLostPackets 0
scalar RSUExampleScenario.node[84].nic.mac1609_4 RXTXLostPackets 0
scalar RSUExampleScenario.node[84].nic.mac1609_4 TotalLostPackets 0
scalar RSUExampleScenario.node[84].nic.mac1609_4 DroppedPacketsInMac 0
scalar RSUExampleScenario.node[84].nic.mac1609_4 TooLittleTime 0
scalar RSUExampleScenario.node[84].nic.mac1609_4 TimesIntoBackoff 0
scalar RSUExampleScenario.node[84].nic.mac1609_4 SlotsBackoff 0
scalar RSUExampleScenario.node[84].nic.mac1609_4 NumInternalContention 0
scalar RSUExampleScenario.node[84].nic.mac1609_4 totalBusyTime 0
scalar RSUExampleScenario.node[84].nic.mac1609_4 retriesExceeded:count 0
attr recordingmode count
attr source org_car2x_veins_modules_mac_sigRetriesExceeded
scalar RSUExampleScenario.node[84].nic.mac1609_4 sentAcks:count 0
attr recordingmode count
attr source org_car2x_veins_modules_mac_sigSentAck
scalar RSUExampleScenario.node[84].nic.mac1609_4 sentPackets:count 0
attr recordingmode count
attr source org_car2x_veins_modules_mac_sigSentPacket
scalar RSUExampleScenario.node[84].nic.mac1609_4 collisions:count 0
attr recordingmode count
attr source org_car2x_veins_modules_mac_sigCollision
scalar RSUExampleScenario.node[84].nic.mac1609_4 channelBusy:timeavg 0
attr recordingmode timeavg
attr source org_car2x_veins_modules_mac_sigChannelBusy
par RSUExampleScenario.node[84].nic typename "\"org.car2x.veins.modules.nic.Nic80211p\""
par RSUExampleScenario.node[84].nic connectionManagerName "\"connectionManager\""
par RSUExampleScenario.node[84].veinsmobility typename "\"org.car2x.veins.modules.mobility.traci.TraCIMobility\""
par RSUExampleScenario.node[84].veinsmobility notAffectedByHostState true
par RSUExampleScenario.node[84].veinsmobility x 0
par RSUExampleScenario.node[84].veinsmobility y 0
par RSUExampleScenario.node[84].veinsmobility z 0
par RSUExampleScenario.node[84].veinsmobility xOrientation 1
par RSUExampleScenario.node[84].veinsmobility yOrientation 0
par RSUExampleScenario.node[84].veinsmobility zOrientation 0
par RSUExampleScenario.node[84].veinsmobility hostPositionOffset 0m
attr unit m
par RSUExampleScenario.node[84].veinsmobility setHostSpeed false
par RSUExampleScenario.node[84].veinsmobility accidentCount 0
par RSUExampleScenario.node[84].veinsmobility accidentStart 51.4409s
attr unit s
par RSUExampleScenario.node[84].veinsmobility accidentDuration "uniform(30s, 60s)"
attr unit s
par RSUExampleScenario.node[84].veinsmobility accidentInterval "uniform(30s, 60s)"
attr unit s
scalar RSUExampleScenario.node[84].veinsmobility startTime 85
scalar RSUExampleScenario.node[84].veinsmobility totalTime 0
scalar RSUExampleScenario.node[84].veinsmobility stopTime 85.000013
scalar RSUExampleScenario.node[84].veinsmobility totalDistance 0
scalar RSUExampleScenario.node[84].veinsmobility totalCO2Emission 0
par RSUExampleScenario.node[84] typename "\"org.car2x.veins.nodes.Car\""
par RSUExampleScenario.node[84] applType "\"TraCIDemo11p\""
par RSUExampleScenario.node[84] nicType "\"Nic80211p\""
par RSUExampleScenario.node[84] veinsmobilityType "\"org.car2x.veins.modules.mobility.traci.TraCIMobility\""
par RSUExampleScenario.rsu[0].appl typename "\"org.car2x.veins.modules.application.traci.TraCIDemoRSU11p\""
par RSUExampleScenario.rsu[0].appl headerLength 80bit
attr unit bit
par RSUExampleScenario.rsu[0].appl sendBeacons false
par RSUExampleScenario.rsu[0].appl beaconLengthBits 256bit
attr unit bit
par RSUExampleScenario.rsu[0].appl beaconUserPriority 7
par RSUExampleScenario.rsu[0].appl beaconInterval 1s
attr unit s
par RSUExampleScenario.rsu[0].appl dataLengthBits 1024bit
attr unit bit
par RSUExampleScenario.rsu[0].appl dataOnSch false
par RSUExampleScenario.rsu[0].appl dataUserPriority 5
par RSUExampleScenario.rsu[0].appl avoidBeaconSynchronization true
par RSUExampleScenario.rsu[0].appl sendWSA false
par RSUExampleScenario.rsu[0].appl wsaLengthBits 250bit
attr unit bit
par RSUExampleScenario.rsu[0].appl wsaInterval 1s
attr unit s
scalar RSUExampleScenario.rsu[0].appl generatedWSMs 0
scalar RSUExampleScenario.rsu[0].appl receivedWSMs 0
scalar RSUExampleScenario.rsu[0].appl generatedBSMs 0
scalar RSUExampleScenario.rsu[0].appl receivedBSMs 0
scalar RSUExampleScenario.rsu[0].appl generatedWSAs 0
scalar RSUExampleScenario.rsu[0].appl receivedWSAs 0
par RSUExampleScenario.rsu[0].nic.phy80211p typename "\"org.car2x.veins.modules.phy.PhyLayer80211p\""
par RSUExampleScenario.rsu[0].nic.phy80211p recordStats false
par RSUExampleScenario.rsu[0].nic.phy80211p usePropagationDelay true
par RSUExampleScenario.rsu[0].nic.phy80211p noiseFloor -98dBm
attr unit dBm
par RSUExampleScenario.rsu[0].nic.phy80211p useNoiseFloor true
par RSUExampleScenario.rsu[0].nic.phy80211p antenna "<Antenna type=\"SampledAntenna1D\" id=\"monopole\">...</Antenna> at C:/Graduation_Project/02_Simulation_Workspace/veins/examples/veins/\\antenna.xml:35"
par RSUExampleScenario.rsu[0].nic.phy80211p antennaOffsetX 0m
attr unit m
par RSUExampleScenario.rsu[0].nic.phy80211p antennaOffsetY 0m
attr unit m
par RSUExampleScenario.rsu[0].nic.phy80211p antennaOffsetZ 0m
attr unit m
par RSUExampleScenario.rsu[0].nic.phy80211p antennaOffsetYaw 0rad
attr unit rad
par RSUExampleScenario.rsu[0].nic.phy80211p analogueModels "<root>...</root> at C:/Graduation_Project/02_Simulation_Workspace/veins/examples/veins/\\config.xml:34"
par RSUExampleScenario.rsu[0].nic.phy80211p decider "<root>...</root> at C:/Graduation_Project/02_Simulation_Workspace/veins/examples/veins/\\config.xml:34"
par RSUExampleScenario.rsu[0].nic.phy80211p minPowerLevel -110dBm
attr unit dBm
par RSUExampleScenario.rsu[0].nic.phy80211p timeRXToTX 0s
attr unit s
par RSUExampleScenario.rsu[0].nic.phy80211p timeRXToSleep 0s
attr unit s
par RSUExampleScenario.rsu[0].nic.phy80211p timeTXToRX 0s
attr unit s
par RSUExampleScenario.rsu[0].nic.phy80211p timeTXToSleep 0s
attr unit s
par RSUExampleScenario.rsu[0].nic.phy80211p timeSleepToRX 0s
attr unit s
par RSUExampleScenario.rsu[0].nic.phy80211p timeSleepToTX 0s
attr unit s
par RSUExampleScenario.rsu[0].nic.phy80211p initialRadioState 0
par RSUExampleScenario.rsu[0].nic.phy80211p radioMinAtt 1
par RSUExampleScenario.rsu[0].nic.phy80211p radioMaxAtt 0
par RSUExampleScenario.rsu[0].nic.phy80211p nbRadioChannels 1
par RSUExampleScenario.rsu[0].nic.phy80211p initialRadioChannel 0
par RSUExampleScenario.rsu[0].nic.phy80211p ccaThreshold -65dBm
attr unit dBm
par RSUExampleScenario.rsu[0].nic.phy80211p collectCollisionStatistics false
par RSUExampleScenario.rsu[0].nic.phy80211p allowTxDuringRx false
scalar RSUExampleScenario.rsu[0].nic.phy80211p busyTime 0
par RSUExampleScenario.rsu[0].nic.mac1609_4 typename "\"org.car2x.veins.modules.mac.ieee80211p.Mac1609_4\""
par RSUExampleScenario.rsu[0].nic.mac1609_4 notAffectedByHostState false
par RSUExampleScenario.rsu[0].nic.mac1609_4 headerLength 0bit
attr unit bit
par RSUExampleScenario.rsu[0].nic.mac1609_4 address "\"auto\""
par RSUExampleScenario.rsu[0].nic.mac1609_4 useServiceChannel false
par RSUExampleScenario.rsu[0].nic.mac1609_4 serviceChannel 1
par RSUExampleScenario.rsu[0].nic.mac1609_4 bitrate 6000000bps
attr unit bps
par RSUExampleScenario.rsu[0].nic.mac1609_4 syncOffset 0.0003s
attr unit s
par RSUExampleScenario.rsu[0].nic.mac1609_4 txPower 20mW
attr unit mW
par RSUExampleScenario.rsu[0].nic.mac1609_4 queueSize 0
par RSUExampleScenario.rsu[0].nic.mac1609_4 dot11RTSThreshold 12000bit
attr unit bit
par RSUExampleScenario.rsu[0].nic.mac1609_4 dot11ShortRetryLimit 7
par RSUExampleScenario.rsu[0].nic.mac1609_4 dot11LongRetryLimit 4
par RSUExampleScenario.rsu[0].nic.mac1609_4 ackLength 112bit
attr unit bit
par RSUExampleScenario.rsu[0].nic.mac1609_4 useAcks false
par RSUExampleScenario.rsu[0].nic.mac1609_4 frameErrorRate 0
par RSUExampleScenario.rsu[0].nic.mac1609_4 ackErrorRate 0
scalar RSUExampleScenario.rsu[0].nic.mac1609_4 ReceivedUnicastPackets 0
scalar RSUExampleScenario.rsu[0].nic.mac1609_4 ReceivedBroadcasts 0
scalar RSUExampleScenario.rsu[0].nic.mac1609_4 SentPackets 0
scalar RSUExampleScenario.rsu[0].nic.mac1609_4 SentAcknowledgements 0
scalar RSUExampleScenario.rsu[0].nic.mac1609_4 RetriesExceeded 0
scalar RSUExampleScenario.rsu[0].nic.mac1609_4 SNIRLostPackets 0
scalar RSUExampleScenario.rsu[0].nic.mac1609_4 RXTXLostPackets 0
scalar RSUExampleScenario.rsu[0].nic.mac1609_4 TotalLostPackets 0
scalar RSUExampleScenario.rsu[0].nic.mac1609_4 DroppedPacketsInMac 0
scalar RSUExampleScenario.rsu[0].nic.mac1609_4 TooLittleTime 0
scalar RSUExampleScenario.rsu[0].nic.mac1609_4 TimesIntoBackoff 0
scalar RSUExampleScenario.rsu[0].nic.mac1609_4 SlotsBackoff 0
scalar RSUExampleScenario.rsu[0].nic.mac1609_4 NumInternalContention 0
scalar RSUExampleScenario.rsu[0].nic.mac1609_4 totalBusyTime 0
scalar RSUExampleScenario.rsu[0].nic.mac1609_4 retriesExceeded:count 0
attr recordingmode count
attr source org_car2x_veins_modules_mac_sigRetriesExceeded
scalar RSUExampleScenario.rsu[0].nic.mac1609_4 sentAcks:count 0
attr recordingmode count
attr source org_car2x_veins_modules_mac_sigSentAck
scalar RSUExampleScenario.rsu[0].nic.mac1609_4 sentPackets:count 0
attr recordingmode count
attr source org_car2x_veins_modules_mac_sigSentPacket
scalar RSUExampleScenario.rsu[0].nic.mac1609_4 collisions:count 0
attr recordingmode count
attr source org_car2x_veins_modules_mac_sigCollision
scalar RSUExampleScenario.rsu[0].nic.mac1609_4 channelBusy:timeavg 0
attr recordingmode timeavg
attr source org_car2x_veins_modules_mac_sigChannelBusy
par RSUExampleScenario.rsu[0].nic typename "\"org.car2x.veins.modules.nic.Nic80211p\""
par RSUExampleScenario.rsu[0].nic connectionManagerName "\"connectionManager\""
par RSUExampleScenario.rsu[0].mobility typename "\"org.car2x.veins.base.modules.BaseMobility\""
par RSUExampleScenario.rsu[0].mobility notAffectedByHostState true
par RSUExampleScenario.rsu[0].mobility x 2000
par RSUExampleScenario.rsu[0].mobility y 2000
par RSUExampleScenario.rsu[0].mobility z 3
par RSUExampleScenario.rsu[0].mobility xOrientation 1
par RSUExampleScenario.rsu[0].mobility yOrientation 0
par RSUExampleScenario.rsu[0].mobility zOrientation 0
par RSUExampleScenario.rsu[0] typename "\"org.car2x.veins.nodes.RSU\""
par RSUExampleScenario.rsu[0] applType "\"TraCIDemoRSU11p\""
par RSUExampleScenario.rsu[0] nicType "\"Nic80211p\""
par RSUExampleScenario.rsu[1].appl typename "\"org.car2x.veins.modules.application.traci.TraCIDemoRSU11p\""
par RSUExampleScenario.rsu[1].appl headerLength 80bit
attr unit bit
par RSUExampleScenario.rsu[1].appl sendBeacons false
par RSUExampleScenario.rsu[1].appl beaconLengthBits 256bit
attr unit bit
par RSUExampleScenario.rsu[1].appl beaconUserPriority 7
par RSUExampleScenario.rsu[1].appl beaconInterval 1s
attr unit s
par RSUExampleScenario.rsu[1].appl dataLengthBits 1024bit
attr unit bit
par RSUExampleScenario.rsu[1].appl dataOnSch false
par RSUExampleScenario.rsu[1].appl dataUserPriority 5
par RSUExampleScenario.rsu[1].appl avoidBeaconSynchronization true
par RSUExampleScenario.rsu[1].appl sendWSA false
par RSUExampleScenario.rsu[1].appl wsaLengthBits 250bit
attr unit bit
par RSUExampleScenario.rsu[1].appl wsaInterval 1s
attr unit s
scalar RSUExampleScenario.rsu[1].appl generatedWSMs 0
scalar RSUExampleScenario.rsu[1].appl receivedWSMs 0
scalar RSUExampleScenario.rsu[1].appl generatedBSMs 0
scalar RSUExampleScenario.rsu[1].appl receivedBSMs 0
scalar RSUExampleScenario.rsu[1].appl generatedWSAs 0
scalar RSUExampleScenario.rsu[1].appl receivedWSAs 0
par RSUExampleScenario.rsu[1].nic.phy80211p typename "\"org.car2x.veins.modules.phy.PhyLayer80211p\""
par RSUExampleScenario.rsu[1].nic.phy80211p recordStats false
par RSUExampleScenario.rsu[1].nic.phy80211p usePropagationDelay true
par RSUExampleScenario.rsu[1].nic.phy80211p noiseFloor -98dBm
attr unit dBm
par RSUExampleScenario.rsu[1].nic.phy80211p useNoiseFloor true
par RSUExampleScenario.rsu[1].nic.phy80211p antenna "<Antenna type=\"SampledAntenna1D\" id=\"monopole\">...</Antenna> at C:/Graduation_Project/02_Simulation_Workspace/veins/examples/veins/\\antenna.xml:35"
par RSUExampleScenario.rsu[1].nic.phy80211p antennaOffsetX 0m
attr unit m
par RSUExampleScenario.rsu[1].nic.phy80211p antennaOffsetY 0m
attr unit m
par RSUExampleScenario.rsu[1].nic.phy80211p antennaOffsetZ 0m
attr unit m
par RSUExampleScenario.rsu[1].nic.phy80211p antennaOffsetYaw 0rad
attr unit rad
par RSUExampleScenario.rsu[1].nic.phy80211p analogueModels "<root>...</root> at C:/Graduation_Project/02_Simulation_Workspace/veins/examples/veins/\\config.xml:34"
par RSUExampleScenario.rsu[1].nic.phy80211p decider "<root>...</root> at C:/Graduation_Project/02_Simulation_Workspace/veins/examples/veins/\\config.xml:34"
par RSUExampleScenario.rsu[1].nic.phy80211p minPowerLevel -110dBm
attr unit dBm
par RSUExampleScenario.rsu[1].nic.phy80211p timeRXToTX 0s
attr unit s
par RSUExampleScenario.rsu[1].nic.phy80211p timeRXToSleep 0s
attr unit s
par RSUExampleScenario.rsu[1].nic.phy80211p timeTXToRX 0s
attr unit s
par RSUExampleScenario.rsu[1].nic.phy80211p timeTXToSleep 0s
attr unit s
par RSUExampleScenario.rsu[1].nic.phy80211p timeSleepToRX 0s
attr unit s
par RSUExampleScenario.rsu[1].nic.phy80211p timeSleepToTX 0s
attr unit s
par RSUExampleScenario.rsu[1].nic.phy80211p initialRadioState 0
par RSUExampleScenario.rsu[1].nic.phy80211p radioMinAtt 1
par RSUExampleScenario.rsu[1].nic.phy80211p radioMaxAtt 0
par RSUExampleScenario.rsu[1].nic.phy80211p nbRadioChannels 1
par RSUExampleScenario.rsu[1].nic.phy80211p initialRadioChannel 0
par RSUExampleScenario.rsu[1].nic.phy80211p ccaThreshold -65dBm
attr unit dBm
par RSUExampleScenario.rsu[1].nic.phy80211p collectCollisionStatistics false
par RSUExampleScenario.rsu[1].nic.phy80211p allowTxDuringRx false
scalar RSUExampleScenario.rsu[1].nic.phy80211p busyTime 0
par RSUExampleScenario.rsu[1].nic.mac1609_4 typename "\"org.car2x.veins.modules.mac.ieee80211p.Mac1609_4\""
par RSUExampleScenario.rsu[1].nic.mac1609_4 notAffectedByHostState false
par RSUExampleScenario.rsu[1].nic.mac1609_4 headerLength 0bit
attr unit bit
par RSUExampleScenario.rsu[1].nic.mac1609_4 address "\"auto\""
par RSUExampleScenario.rsu[1].nic.mac1609_4 useServiceChannel false
par RSUExampleScenario.rsu[1].nic.mac1609_4 serviceChannel 1
par RSUExampleScenario.rsu[1].nic.mac1609_4 bitrate 6000000bps
attr unit bps
par RSUExampleScenario.rsu[1].nic.mac1609_4 syncOffset 0.0003s
attr unit s
par RSUExampleScenario.rsu[1].nic.mac1609_4 txPower 20mW
attr unit mW
par RSUExampleScenario.rsu[1].nic.mac1609_4 queueSize 0
par RSUExampleScenario.rsu[1].nic.mac1609_4 dot11RTSThreshold 12000bit
attr unit bit
par RSUExampleScenario.rsu[1].nic.mac1609_4 dot11ShortRetryLimit 7
par RSUExampleScenario.rsu[1].nic.mac1609_4 dot11LongRetryLimit 4
par RSUExampleScenario.rsu[1].nic.mac1609_4 ackLength 112bit
attr unit bit
par RSUExampleScenario.rsu[1].nic.mac1609_4 useAcks false
par RSUExampleScenario.rsu[1].nic.mac1609_4 frameErrorRate 0
par RSUExampleScenario.rsu[1].nic.mac1609_4 ackErrorRate 0
scalar RSUExampleScenario.rsu[1].nic.mac1609_4 ReceivedUnicastPackets 0
scalar RSUExampleScenario.rsu[1].nic.mac1609_4 ReceivedBroadcasts 0
scalar RSUExampleScenario.rsu[1].nic.mac1609_4 SentPackets 0
scalar RSUExampleScenario.rsu[1].nic.mac1609_4 SentAcknowledgements 0
scalar RSUExampleScenario.rsu[1].nic.mac1609_4 RetriesExceeded 0
scalar RSUExampleScenario.rsu[1].nic.mac1609_4 SNIRLostPackets 0
scalar RSUExampleScenario.rsu[1].nic.mac1609_4 RXTXLostPackets 0
scalar RSUExampleScenario.rsu[1].nic.mac1609_4 TotalLostPackets 0
scalar RSUExampleScenario.rsu[1].nic.mac1609_4 DroppedPacketsInMac 0
scalar RSUExampleScenario.rsu[1].nic.mac1609_4 TooLittleTime 0
scalar RSUExampleScenario.rsu[1].nic.mac1609_4 TimesIntoBackoff 0
scalar RSUExampleScenario.rsu[1].nic.mac1609_4 SlotsBackoff 0
scalar RSUExampleScenario.rsu[1].nic.mac1609_4 NumInternalContention 0
scalar RSUExampleScenario.rsu[1].nic.mac1609_4 totalBusyTime 0
scalar RSUExampleScenario.rsu[1].nic.mac1609_4 retriesExceeded:count 0
attr recordingmode count
attr source org_car2x_veins_modules_mac_sigRetriesExceeded
scalar RSUExampleScenario.rsu[1].nic.mac1609_4 sentAcks:count 0
attr recordingmode count
attr source org_car2x_veins_modules_mac_sigSentAck
scalar RSUExampleScenario.rsu[1].nic.mac1609_4 sentPackets:count 0
attr recordingmode count
attr source org_car2x_veins_modules_mac_sigSentPacket
scalar RSUExampleScenario.rsu[1].nic.mac1609_4 collisions:count 0
attr recordingmode count
attr source org_car2x_veins_modules_mac_sigCollision
scalar RSUExampleScenario.rsu[1].nic.mac1609_4 channelBusy:timeavg 0
attr recordingmode timeavg
attr source org_car2x_veins_modules_mac_sigChannelBusy
par RSUExampleScenario.rsu[1].nic typename "\"org.car2x.veins.modules.nic.Nic80211p\""
par RSUExampleScenario.rsu[1].nic connectionManagerName "\"connectionManager\""
par RSUExampleScenario.rsu[1].mobility typename "\"org.car2x.veins.base.modules.BaseMobility\""
par RSUExampleScenario.rsu[1].mobility notAffectedByHostState true
par RSUExampleScenario.rsu[1].mobility x 0
par RSUExampleScenario.rsu[1].mobility y 0
par RSUExampleScenario.rsu[1].mobility z 0
par RSUExampleScenario.rsu[1].mobility xOrientation 1
par RSUExampleScenario.rsu[1].mobility yOrientation 0
par RSUExampleScenario.rsu[1].mobility zOrientation 0
par RSUExampleScenario.rsu[1] typename "\"org.car2x.veins.nodes.RSU\""
par RSUExampleScenario.rsu[1] applType "\"TraCIDemoRSU11p\""
par RSUExampleScenario.rsu[1] nicType "\"Nic80211p\""
par RSUExampleScenario typename "\"RSUExampleScenario\""
par RSUExampleScenario playgroundSizeX 5000m
attr unit m
par RSUExampleScenario playgroundSizeY 5000m
attr unit m
par RSUExampleScenario playgroundSizeZ 50m
attr unit m

